%chk=apoCaM-CA-Ng.loop2.water4.frame357.chk
%nprocshared=20
%mem=10GB
%nosave
#b3lyp/svp scf=(tight,noincore,xqc) Test 
#IOP(5/87=12) Density=Current Pop=(MK,readradii) iop(6/33=2) iop(6/42=6)

apoCaM-CA-Ng.loop2.water4.frame357 

   -2  1 
C         62.28850      100.02909       34.62580
C         61.07396      100.78674       34.17188
O         60.53900      101.55845       34.95474
H         63.07132      100.74739       34.94707
H         62.02494       99.37257       35.48153
H         62.70303       99.39858       33.81183
N         60.56408      100.59440       32.92220
C         59.39004      101.29677       32.41695
C         58.22305      100.33843       32.32910
O         58.34392       99.29111       31.71072
C         59.66467      101.99584       31.06531
C         59.97950      101.07068       29.91663
O         59.23474      101.02604       28.95010
O         61.09582      100.31940       29.92293
H         61.00629       99.88457       32.32131
H         59.10588      102.11424       33.11533
H         60.49936      102.71952       31.18250
H         58.75202      102.57824       30.80398
N         57.03800      100.65423       32.91984
C         55.88778       99.76585       32.89570
C         56.09805       98.61426       33.85637
O         56.27619       98.85990       35.04255
C         54.62079      100.52704       33.30167
H         56.94042      101.57825       33.36885
H         55.71899       99.40861       31.85455
H         54.44919      101.37074       32.59948
H         53.74010       99.85066       33.25679
H         54.71171      100.93413       34.33151
N         56.05646       97.32392       33.42311
C         56.14029       96.17986       34.33536
C         54.93989       96.15565       35.28358
O         54.09629       97.03881       35.20670
C         56.24280       94.86716       33.52488
C         57.49934       94.86713       32.70238
O         58.69313       94.98696       33.31503
O         57.44410       94.78034       31.48673
H         55.94107       97.15199       32.41188
H         57.06267       96.26752       34.95229
H         55.34796       94.74850       32.87479
H         56.30218       93.98856       34.19843
N         54.79353       95.15641       36.20263
C         53.67765       95.09716       37.13897
C         54.09067       94.82131       38.57597
O         53.19493       94.72877       39.40424
H         55.46539       94.37737       36.20216
H         53.01904       94.25726       36.83159
H         53.07132       96.02808       37.10827
N         55.38929       94.60355       38.94633
C         55.78139       94.15417       40.27923
C         56.86810       95.04992       40.84862
O         57.88043       95.24825       40.18959
C         56.30992       92.70868       40.16283
C         56.61570       92.04748       41.49009
N         57.12136       90.79398       41.51172
O         56.40279       92.62622       42.54584
H         56.13886       94.66654       38.24415
H         54.90285       94.12556       40.96279
H         57.22678       92.70580       39.53371
H         55.54125       92.08602       39.65460
H         57.31121       90.28950       40.63359
H         57.32933       90.32912       42.40787
N         56.75043       95.58329       42.09646
C         57.78846       96.39661       42.71551
C         59.08752       95.64156       42.95443
O         59.18849       94.46645       42.62729
H         55.89202       95.40233       42.64080
H         57.42057       96.73567       43.70950
H         57.97966       97.29321       42.09081
N         60.11964       96.27296       43.58854
C         61.32938       95.57251       44.02680
C         62.39121       95.42468       42.94318
O         63.32157       94.66363       43.17253
C         61.94554       96.23160       45.29106
C         62.52381       97.63551       45.04316
O         61.01267       96.25098       46.34342
H         59.95380       97.24022       43.89970
H         61.02365       94.54737       44.33861
H         62.79695       95.59997       45.62822
H         60.34646       96.96158       46.15556
H         63.34080       97.57814       44.30165
H         61.75306       98.34445       44.67764
H         62.95462       98.03797       45.98251
N         62.34924       96.11441       41.76389
C         63.35245       95.94321       40.70844
C         62.66871       95.32294       39.50777
O         61.46090       95.47208       39.36887
C         64.04103       97.30645       40.34458
C         64.66146       98.02934       41.56743
C         65.10474       97.16706       39.23512
C         65.76100       97.25301       42.29977
H         61.56958       96.76609       41.58861
H         64.13540       95.22687       41.03617
H         63.25735       97.99249       39.95122
H         63.85430       98.27449       42.28178
H         65.08991       99.00038       41.23236
H         65.90535       96.45657       39.52805
H         64.65221       96.82217       38.28631
H         65.56662       98.15360       39.01539
H         66.13773       97.86485       43.14659
H         65.37021       96.30334       42.71367
H         66.61813       97.03747       41.63005
N         63.38701       94.62961       38.57842
C         62.77934       94.08902       37.37309
C         63.17856       92.62485       37.18999
O         63.53060       92.23400       36.08895
C         63.23867       95.00243       36.21565
C         62.53246       94.78666       34.91311
O         61.54787       93.87574       34.79328
O         62.83688       95.47740       33.95454
H         64.40766       94.53304       38.69709
H         61.67201       94.14518       37.44840
H         64.33647       94.88953       36.07813
H         63.04069       96.05910       36.50229
N         63.21795       91.77270       38.25665
C         63.72018       90.39563       38.17875
C         65.12780       90.35940       37.58131
O         65.99654       91.04737       38.10076
C         63.80472       89.77719       39.59508
C         62.46674       89.37553       40.15889
C         61.82905       90.14482       41.14534
C         61.86940       88.17729       39.72741
C         60.60635       89.72483       41.68209
C         60.65784       87.75272       40.27905
C         60.02462       88.52752       41.25352
H         62.94480       92.14473       39.17928
H         63.03369       89.78205       37.56333
H         64.33005       90.49098       40.26822
H         64.42699       88.85338       39.58551
H         62.27330       91.06828       41.49421
H         62.35658       87.55915       38.98241
H         60.11300       90.32291       42.43686
H         60.21428       86.81938       39.95558
H         59.08600       88.19687       41.67933
N         65.45355       89.54050       36.52715
C         66.81212       89.37023       36.03029
C         67.21845       90.42704       35.01092
O         68.36390       90.40266       34.58259
C         66.75897       87.98084       35.38553
C         65.37067       87.98500       34.77163
C         64.54148       88.60498       35.89389
H         67.55113       89.35968       36.86199
H         67.59352       87.74517       34.69089
H         66.75281       87.21666       36.19667
H         65.38767       88.69076       33.91008
H         64.99422       87.00364       34.41338
H         63.63695       89.09050       35.46748
H         64.25371       87.83806       36.64697
N         66.33951       91.35852       34.54653
C         66.70361       92.37887       33.57107
C         67.73331       93.31284       34.16880
O         68.81359       93.43554       33.60834
C         65.46108       93.17352       33.11173
C         64.48370       92.28263       32.32443
C         63.27129       93.04422       31.88053
O         63.38356       94.02178       31.15766
O         62.04717       92.63165       32.25996
H         65.37122       91.32863       34.87946
H         67.13449       91.89270       32.66590
H         65.78802       94.00090       32.44318
H         64.95172       93.61748       33.99193
H         64.15119       91.42645       32.94808
H         64.99569       91.88124       31.42375
N         67.46653       93.99273       35.31926
C         68.40743       94.89677       35.94871
H         69.35738       94.98449       35.38025
H         67.95136       95.90557       36.02544
H         68.64327       94.52871       36.96896
H         66.55631       93.85829       35.78366
Ca        60.60161       95.20884       32.13876
O         59.47155       97.03443       30.00688
H         58.51973       96.94275       30.26241
H         59.90209       97.43478       30.80329
O         60.37198       93.34285       29.76572
H         59.56284       93.52165       30.30705
H         60.19160       93.78536       28.89914
O         62.67533       97.51043       31.13773
H         63.10835       98.30769       31.53337
H         62.34565       97.81998       30.25695
O         60.04457       97.59335       34.15502
H         59.12735       97.76560       33.82584
H         59.94577       97.52694       35.13765

Ca 1.0



