%chk=apoCaM-CA-Ng.loop1.water3.frame76.chk
%nprocshared=20
%mem=10GB
%nosave
#b3lyp/svp scf=(tight,noincore,xqc) Test 
#IOP(5/87=12) Density=Current Pop=(MK,readradii) iop(6/33=2) iop(6/42=6)

apoCaM-CA-Ng.loop1.water3.frame76 

   0  1 
C         56.45606       44.94488       75.26630
C         55.27525       45.39255       76.07641
O         55.45578       45.86835       77.18830
H         57.40269       45.09214       75.82833
H         56.35375       43.86650       75.01907
H         56.50172       45.52987       74.32417
N         54.01864       45.23389       75.57737
C         52.80444       45.61009       76.29658
C         52.04445       44.39247       76.81306
O         51.01017       44.57632       77.43415
C         51.93322       46.54421       75.42463
C         51.41107       45.97593       74.13041
O         50.66332       46.76126       73.33175
O         51.63412       44.82371       73.79626
H         53.92564       44.78007       74.65643
H         53.06759       46.18847       77.20952
H         52.53085       47.45246       75.19157
H         51.04614       46.85360       76.00648
N         52.54814       43.13151       76.67447
C         51.99869       41.94079       77.31688
C         52.70587       41.73216       78.64426
O         53.92884       41.74575       78.64216
C         52.23220       40.72240       76.39863
C         51.20023       40.70499       75.26717
C         51.57747       39.72358       74.15458
C         50.42377       39.48794       73.16253
N         49.85302       40.73142       72.63931
H         53.46497       43.01683       76.22132
H         50.91686       42.03184       77.46994
H         52.10915       39.76880       76.95997
H         53.27596       40.74879       76.01324
H         51.11385       41.71540       74.81403
H         50.22013       40.42609       75.71562
H         51.85818       38.73508       74.57934
H         52.46315       40.13670       73.62231
H         49.61882       38.91132       73.66967
H         50.80997       38.86952       72.32226
H         49.34885       41.24403       73.39930
H         50.59840       41.33844       72.22962
H         49.15130       40.49721       71.90087
N         52.06121       41.49162       79.83191
C         50.62216       41.32580       80.05741
C         50.04972       40.20698       79.18162
O         49.19246       40.47089       78.35052
C         49.83440       42.65041       79.95882
C         50.29456       43.70161       80.93592
O         49.71635       44.77495       80.97507
O         51.32070       43.47614       81.77956
H         52.66117       41.34384       80.65944
H         50.46748       41.01459       81.11422
H         48.77710       42.41692       80.19314
H         49.85425       43.07861       78.94847
N         50.44657       38.90908       79.32264
C         51.36724       38.50294       80.36925
C         51.60967       37.01384       80.45428
O         51.15447       36.26884       79.59735
H         50.02386       38.20158       78.70166
H         50.92849       38.81864       81.32418
H         52.34925       38.99641       80.22479
N         52.35825       36.48217       81.46407
C         52.89989       37.26328       82.57813
C         51.78291       37.75508       83.50372
O         50.96174       36.96327       83.94294
C         54.00277       36.48019       83.32544
C         53.57891       35.17548       83.94245
O         54.08761       34.13207       83.56429
O         52.68665       35.14817       84.94887
H         52.55420       35.46940       81.42996
H         53.44755       38.13980       82.16639
H         54.43713       37.12746       84.11786
H         54.81161       36.27456       82.58739
N         51.70385       39.07772       83.83161
C         50.66733       39.67512       84.66813
C         49.31849       39.74299       83.98148
O         49.12538       39.09300       82.96333
H         52.44082       39.71022       83.48545
H         50.97030       40.72846       84.85038
H         50.59515       39.17200       85.65706
N         48.35844       40.60351       84.44097
C         47.09219       40.81385       83.73869
C         47.12091       42.11475       82.95594
O         48.02117       42.92343       83.14038
C         45.87243       40.78343       84.69971
C         45.83220       41.98065       85.67928
O         45.80864       39.55027       85.37672
H         48.58410       41.20106       85.25101
H         46.95539       40.00643       82.98594
H         44.94681       40.86652       84.08946
H         46.24720       39.64436       86.26234
H         45.80095       42.94327       85.12494
H         44.91657       41.92421       86.30483
H         46.71506       41.98963       86.35067
N         46.16556       42.35642       82.01903
C         46.11490       43.57628       81.22404
C         45.63711       44.73607       82.08036
O         44.52560       44.68534       82.59110
C         45.21641       43.36910       79.95971
C         45.90954       42.35524       79.00451
C         44.95721       44.70104       79.23225
C         45.13257       42.05029       77.72276
H         45.46839       41.61683       81.83686
H         47.12764       43.81469       80.83840
H         44.22566       42.97406       80.27858
H         46.06618       41.39384       79.53756
H         46.90612       42.74884       78.70600
H         45.90571       45.15389       78.87703
H         44.26642       44.56816       78.37656
H         44.44504       45.40449       79.91242
H         45.03227       42.95261       77.08549
H         45.69227       41.29737       77.12843
H         44.12762       41.64717       77.96324
N         46.41043       45.85416       82.19890
C         45.96207       47.09572       82.82379
C         45.82731       48.21351       81.78513
O         45.39785       49.29661       82.15009
C         46.90213       47.51203       83.98440
C         48.34171       47.80936       83.54127
O         46.89295       46.54417       85.00343
H         47.34091       45.85018       81.75460
H         44.94665       46.95876       83.25728
H         46.49795       48.44997       84.42431
H         47.25233       45.70098       84.62450
H         48.93857       48.15218       84.41246
H         48.82587       46.90236       83.12594
H         48.35781       48.61208       82.77381
N         46.13822       48.00862       80.46621
C         45.94408       48.97422       79.38954
C         46.87972       50.17892       79.51566
O         47.61205       50.30243       80.48927
C         44.43211       49.32626       79.21480
C         43.57989       48.05540       79.11196
O         44.23253       50.06661       78.03969
H         46.49888       47.09676       80.16336
H         46.25908       48.46245       78.44973
H         44.09201       49.92135       80.09071
H         43.33950       50.49417       78.10597
H         42.51634       48.32006       78.93824
H         43.92915       47.42213       78.26678
H         43.62813       47.48089       80.05704
N         46.95651       51.06163       78.48254
C         47.87379       52.18466       78.36192
C         49.35125       51.80174       78.39890
O         50.16986       52.71011       78.45933
C         47.59037       53.00371       77.06275
C         47.72094       52.29160       75.67390
C         46.48838       51.45121       75.23654
C         46.48712       51.02608       73.76077
N         47.42094       49.93054       73.49930
H         46.29886       50.92796       77.73167
H         47.69528       52.85084       79.23531
H         48.31825       53.84561       77.06586
H         46.58369       53.47013       77.12570
H         48.67242       51.72407       75.59682
H         47.77064       53.12094       74.93466
H         45.59413       52.09515       75.38456
H         46.36192       50.51140       75.79674
H         46.69961       51.89661       73.10319
H         45.46267       50.66228       73.51679
H         47.35656       49.66762       72.48915
H         48.40076       50.21196       73.72250
H         47.15174       49.09400       74.06898
N         49.78305       50.50975       78.37797
C         51.19734       50.15704       78.45518
C         51.93885       50.68603       77.24181
O         51.59178       50.32644       76.12480
C         51.36977       48.62592       78.54362
C         50.79194       48.00688       79.83183
C         51.54546       48.37449       81.08677
O         51.13774       47.87729       82.26698
O         52.53702       49.08624       81.05392
H         49.09344       49.75073       78.30698
H         51.63181       50.60954       79.37005
H         52.44548       48.35001       78.47340
H         50.83987       48.18337       77.68182
H         50.83599       46.90276       79.73108
H         49.72465       48.28812       79.94824
N         52.98214       51.54993       77.40149
C         53.74158       52.10639       76.30005
H         54.80681       51.80973       76.40094
H         53.37230       51.76169       75.31174
H         53.67510       53.21418       76.33276
H         53.26290       51.83182       78.35280
Ca        51.96939       45.08491       83.22769
O         53.49157       45.76338       80.70004
H         53.08182       45.98176       79.82644
H         53.57150       44.77680       80.69437
O         49.65802       44.84176       85.12328
H         49.73844       43.92200       84.76718
H         49.34097       44.72019       86.05284
O         52.40394       43.40961       85.77236
H         51.58180       43.01914       86.16187
H         52.75101       42.70533       85.16921

Ca 1.0



