%chk=apoCaM-CA-Ng.loop1.water2.frame1116.chk
%nprocshared=20
%mem=10GB
%nosave
#b3lyp/svp scf=(tight,noincore,xqc) Test 
#IOP(5/87=12) Density=Current Pop=(MK,readradii) iop(6/33=2) iop(6/42=6)

apoCaM-CA-Ng.loop1.water2.frame1116 

   0  1 
C         72.02090       51.62098       85.32293
C         71.66619       50.35908       84.59956
O         72.24448       50.10084       83.55416
H         72.79462       52.18799       84.76016
H         71.11860       52.26036       85.42197
H         72.41666       51.37405       86.32859
N         70.68579       49.53964       85.08174
C         70.25410       48.32986       84.38628
C         68.88310       48.56243       83.78295
O         67.96579       47.77356       83.96736
C         70.34362       47.07924       85.29142
C         69.41142       47.10425       86.47861
O         68.54464       46.25160       86.58921
O         69.54080       48.03876       87.43885
H         70.18741       49.83138       85.93398
H         70.92623       48.14051       83.52487
H         71.38617       46.96263       85.65677
H         70.10389       46.18856       84.66846
N         68.69395       49.67680       83.02853
C         67.44834       50.00864       82.35746
C         67.20446       49.04072       81.21194
O         66.14412       48.43218       81.22035
C         67.43496       51.49479       81.93681
C         67.50965       52.38089       83.19878
C         67.68146       53.86171       82.86948
C         67.80624       54.67605       84.16666
N         68.07818       56.08227       83.88061
H         69.48173       50.33552       82.94100
H         66.60515       49.91257       83.08180
H         66.49383       51.73009       81.39273
H         68.28376       51.72415       81.26556
H         68.38361       52.08620       83.81687
H         66.59143       52.22919       83.81006
H         66.81962       54.22659       82.27016
H         68.61390       53.98360       82.27610
H         68.64029       54.27020       84.78351
H         66.86534       54.58843       84.75510
H         67.30029       56.49253       83.31572
H         68.15984       56.60341       84.78345
H         68.98129       56.16958       83.35969
N         68.11235       48.73847       80.23018
C         69.47431       49.26318       80.07495
C         70.47357       48.26426       80.60283
O         70.06569       47.21447       81.08316
C         69.73610       49.68845       78.60908
C         69.29295       48.67710       77.58445
O         70.04580       47.64075       77.14150
O         68.18462       48.82818       77.09480
H         67.83795       47.97512       79.59173
H         69.63794       50.15657       80.69677
H         70.77166       50.03180       78.41277
H         69.09138       50.58303       78.45491
N         71.80400       48.56205       80.63097
C         72.77753       47.70818       81.28962
C         73.78134       47.13108       80.34079
O         73.76402       47.43280       79.15774
H         72.13789       49.44675       80.21668
H         72.28145       46.85196       81.79220
H         73.31005       48.29104       82.06954
N         74.68306       46.23657       80.82125
C         75.67109       45.54570       80.00310
C         77.06911       45.86554       80.53316
O         77.15586       46.52361       81.56235
C         75.35128       44.03665       80.07030
C         73.96374       43.74530       79.56907
O         73.66117       43.99408       78.41286
O         73.04994       43.20066       80.39495
H         74.64560       46.00309       81.82729
H         75.60226       45.89367       78.95154
H         75.43383       43.69774       81.12657
H         76.04289       43.43370       79.46535
N         78.23456       45.49487       79.92402
C         78.38078       44.77902       78.66875
C         77.79568       45.55129       77.51780
O         78.16519       46.70321       77.33475
H         79.11489       45.77552       80.38448
H         77.97834       43.75401       78.73688
H         79.46704       44.66242       78.46309
N         76.90333       44.96377       76.66950
C         76.40402       45.64590       75.48292
C         75.20548       46.59808       75.81157
O         74.04386       45.82570       76.00371
C         76.16522       44.67634       74.27794
C         75.27474       43.45406       74.56182
O         77.40740       44.20931       73.81579
H         76.66174       43.97750       76.83073
H         77.23138       46.29853       75.12097
H         75.68990       45.28710       73.47324
H         77.29501       43.99162       72.85203
H         74.28936       43.72456       74.96628
H         75.10730       42.89588       73.61632
H         75.76404       42.75336       75.26772
N         75.07362       47.55850       74.69346
C         74.19238       48.73179       74.85249
C         72.88322       48.46554       74.11876
O         72.13505       47.57546       74.48869
C         74.00064       49.25712       76.31765
C         75.31701       49.56348       77.08686
C         73.06783       50.48481       76.34314
C         76.17465       50.68831       76.50924
H         76.02594       47.95603       74.51213
H         74.67926       49.57739       74.31482
H         73.50252       48.48376       76.90165
H         75.94403       48.65318       77.15487
H         75.05265       49.84193       78.13175
H         72.07066       50.23220       75.92535
H         72.91179       50.82974       77.38722
H         73.48655       51.32083       75.74576
H         75.62179       51.64942       76.50361
H         77.07141       50.82084       77.15178
H         76.51419       50.44195       75.48384
N         72.53739       49.25974       73.06803
C         71.24380       49.21645       72.38890
C         70.99442       47.99345       71.49922
O         69.93893       47.97883       70.87921
C         71.05833       50.51569       71.54461
C         72.01187       50.60461       70.34283
O         71.24712       51.64941       72.35347
H         73.18655       50.02109       72.82215
H         70.44931       49.24382       73.16812
H         70.02451       50.54240       71.12814
H         70.47714       51.69142       72.97874
H         71.84928       49.75487       69.64767
H         71.81613       51.54375       69.78346
H         73.07494       50.60686       70.65815
N         71.87109       46.95157       71.35256
C         71.65488       45.89578       70.35482
C         71.18193       44.59111       70.98580
O         71.91166       43.98274       71.75363
C         72.91683       45.67799       69.47945
C         73.28401       46.92409       68.65605
O         74.01087       45.23752       70.25001
H         72.72137       46.91576       71.93051
H         70.85466       46.21036       69.65066
H         72.68782       44.87772       68.74128
H         74.43000       46.02579       70.68406
H         72.43616       47.21269       67.99890
H         73.53379       47.78126       69.31613
H         74.16329       46.70256       68.01372
N         69.94297       44.10264       70.66504
C         69.36525       42.84864       71.14172
C         69.22947       42.81312       72.65461
O         69.86647       41.98865       73.29817
C         70.10827       41.59577       70.63018
C         70.17302       41.46814       69.10218
C         70.61922       40.03720       68.74374
C         70.80152       39.78705       67.24123
N         71.95668       40.50755       66.70582
H         69.35025       44.65513       70.02660
H         68.33390       42.76210       70.72854
H         69.52898       40.72547       71.01592
H         71.13780       41.53758       71.04413
H         70.87202       42.23696       68.71239
H         69.16809       41.63666       68.65495
H         69.83016       39.34023       69.10688
H         71.56658       39.78200       69.26573
H         69.87840       40.06077       66.68389
H         70.97449       38.69642       67.09947
H         71.80783       41.53943       66.75678
H         72.81791       40.24484       67.23932
H         72.09129       40.23702       65.70518
N         68.34446       43.63553       73.28261
C         68.09340       43.57148       74.72142
C         68.40551       44.89799       75.39245
O         69.30102       44.89017       76.22471
C         66.67106       43.05588       75.03792
C         66.46960       41.61507       74.54237
C         65.07990       41.13208       74.84266
O         64.89172       40.06824       75.64641
O         64.11444       41.69342       74.34905
H         67.80448       44.28669       72.69875
H         68.77576       42.82663       75.19193
H         65.89007       43.69422       74.59248
H         66.52580       43.06369       76.14129
H         67.20676       40.95075       75.04539
H         66.63244       41.55481       73.44529
N         67.77145       46.08493       75.15717
C         66.68082       46.35992       74.24741
H         65.81322       46.73124       74.83304
H         66.99431       47.15324       73.53823
H         66.34929       45.50133       73.65606
H         68.09472       46.89558       75.69324
Ca        72.09816       46.62771       77.02501
O         71.73393       44.30958       74.95903
H         72.29065       44.60051       74.19486
H         71.69472       43.32355       74.88427
O         70.65190       44.88449       78.89711
H         70.25876       45.13097       79.76897
H         70.81037       43.91091       78.96901

Ca 1.0



