%chk=apoCaM-CA-Ng.loop4.water6.frame512.chk
%nprocshared=20
%mem=10GB
%nosave
#b3lyp/svp scf=(tight,noincore,xqc) Test 
#IOP(5/87=12) Density=Current Pop=(MK,readradii) iop(6/33=2) iop(6/42=6)

apoCaM-CA-Ng.loop4.water6.frame512 

   -3  1 
C         97.47598       53.53973       48.54847
C         97.75705       52.15823       49.05563
O         97.96316       52.01214       50.25065
H         96.57551       53.93790       49.06357
H         98.33774       54.20267       48.76606
H         97.28751       53.54093       47.45548
N         97.74701       51.08291       48.20805
C         97.97025       49.69389       48.62514
C         96.86355       49.17457       49.54343
O         96.96223       48.04786       50.01003
C         99.36886       49.54102       49.26675
C        100.40962       50.14999       48.37131
O        101.08254       51.23831       48.78695
O        100.58633       49.72053       47.24227
H         97.57490       51.24918       47.20507
H         97.95568       49.05275       47.71511
H         99.60368       48.46970       49.44782
H         99.39861       50.05607       50.24897
N         95.77267       49.94149       49.83538
C         94.70817       49.55038       50.75010
C         93.95795       48.32036       50.24883
O         93.95929       48.08070       49.04913
C         93.71367       50.74831       50.97615
C         93.03003       51.21782       49.65398
C         94.44653       51.90161       51.69220
C         91.96821       52.29894       49.85604
H         95.70090       50.86459       49.40766
H         95.19326       49.30475       51.71611
H         92.90401       50.42074       51.65354
H         92.52239       50.35209       49.17917
H         93.76818       51.61613       48.92911
H         95.24279       52.34108       51.05849
H         93.74275       52.70684       51.98087
H         94.91577       51.53213       52.62786
H         91.17171       51.93511       50.53773
H         92.41117       53.23095       50.26102
H         91.51054       52.54862       48.87481
N         93.22936       47.51284       51.07772
C         93.22476       47.61582       52.53586
C         94.55523       47.20223       53.14484
O         94.97578       47.81781       54.11412
C         92.04234       46.87824       53.20669
C         91.99284       45.38921       53.00179
O         92.07736       44.56556       54.06337
O         91.81208       44.91764       51.89137
H         92.66437       46.77595       50.63342
H         93.03861       48.65858       52.81154
H         91.08788       47.31761       52.84281
H         92.09873       47.07870       54.30074
N         95.28149       46.17840       52.61767
C         96.54580       45.72599       53.17292
C         96.34676       45.09682       54.53060
O         95.52965       44.19272       54.63997
H         94.93355       45.69780       51.77452
H         97.27990       46.56143       53.20319
H         96.95962       44.93893       52.50603
N         97.09794       45.47988       55.60445
C         96.97510       44.82499       56.90666
C         95.64350       45.10882       57.59824
O         95.34022       44.42255       58.56411
C         98.21005       45.10377       57.79774
C         98.50721       46.55809       58.04836
O         97.66361       47.31862       58.76101
O         99.54935       47.04610       57.63993
H         97.82587       46.19619       55.46378
H         96.99925       43.72701       56.72233
H         99.09006       44.66507       57.27747
H         98.10516       44.57882       58.77177
N         94.79388       46.08375       57.16404
C         93.46409       46.30355       57.71423
C         93.36793       47.58432       58.50954
O         92.25572       47.99393       58.80762
H         95.08751       46.71203       56.40454
H         93.13311       45.47289       58.37360
H         92.75667       46.34238       56.85664
N         94.48640       48.24745       58.92912
C         94.48357       49.48007       59.70695
C         93.96126       50.65528       58.90005
O         93.69823       51.69541       59.48589
C         93.78309       49.30352       61.07827
C         94.52495       48.27254       61.94724
C         93.90470       48.14145       63.31409
N         92.64836       47.66193       63.46307
O         94.55143       48.45826       64.30165
H         95.40314       47.86028       58.69680
H         95.53693       49.75631       59.93874
H         92.71838       49.02161       60.95383
H         93.80931       50.27399       61.62109
H         95.57940       48.60983       62.06360
H         94.53152       47.27541       61.45783
H         92.09367       47.37205       62.64503
H         92.23409       47.56695       64.40238
N         93.92419       50.60713       57.53369
C         93.56230       51.75201       56.70512
C         94.76246       52.27655       55.91544
O         94.61482       53.31374       55.28119
C         92.34844       51.41914       55.79722
C         92.63227       50.26939       54.82678
C         91.11005       51.08336       56.64020
H         94.21637       49.74722       57.05104
H         93.25863       52.60411       57.35092
H         92.11055       52.32357       55.19445
H         91.75882       50.12136       54.15626
H         93.51740       50.50197       54.20375
H         92.81380       49.31427       55.36232
H         90.86448       51.93059       57.31432
H         90.23487       50.89988       55.98078
H         91.28235       50.17452       57.25560
N         95.98741       51.66479       55.93120
C         97.17220       52.26010       55.30727
C         97.57696       53.53232       56.05197
O         96.97847       53.84982       57.07070
C         98.35162       51.25444       55.32594
C         98.07823       50.04458       54.46567
N         97.93170       50.17391       53.12592
O         98.01264       48.93761       54.97795
H         96.10312       50.76664       56.42234
H         96.93957       52.52108       54.25169
H         98.54460       50.94193       56.37712
H         99.28152       51.72182       54.93882
H         98.00841       51.09750       52.67765
H         97.76002       49.34923       52.53212
N         98.60857       54.30365       55.59749
C         99.08337       55.50072       56.28788
C         99.00896       56.71572       55.38865
O         99.64499       56.72372       54.34657
C        100.54655       55.30158       56.72905
C        100.66754       54.28080       57.82950
C        101.36674       53.08067       57.62832
C        100.09238       54.54022       59.08551
C        101.48250       52.15256       58.66852
C        100.21240       53.61487       60.12296
C        100.90609       52.41865       59.92030
O        101.01473       51.53722       60.93415
H         99.09765       54.02015       54.73487
H         98.47314       55.70924       57.19138
H        100.96174       56.25689       57.12067
H        101.15409       55.01240       55.84200
H        101.82021       52.86212       56.66955
H         99.55921       55.46564       59.26575
H        102.02281       51.22965       58.50186
H         99.76845       53.83196       61.08640
H        101.48930       50.69956       60.83884
N         98.28153       57.80704       55.77100
C         98.26086       59.06956       55.03464
C         99.64906       59.69452       55.06906
O        100.09419       60.02661       56.15973
C         97.24686       60.02941       55.70930
C         97.19500       61.42941       55.07899
C         96.19658       62.29232       55.79828
O         96.60107       63.41179       56.42927
O         95.01572       61.98333       55.81737
H         97.73849       57.74319       56.64614
H         97.91898       58.87611       53.99828
H         97.51627       60.14732       56.78440
H         96.23815       59.56346       55.65978
H         96.91896       61.35925       54.00645
H         98.19391       61.91101       55.15811
N        100.43332       59.88361       53.96806
C        100.12700       59.43973       52.61046
C         99.10870       60.32355       51.92500
O         99.27994       61.53499       51.90052
C        101.40571       59.38317       51.74802
C        102.44990       58.42761       52.35473
C        103.60121       58.21092       51.42023
O        104.34971       59.25116       51.00812
O        103.87148       57.08382       51.03818
H        101.36342       60.29730       54.13843
H         99.76343       58.39474       52.62801
H        101.84741       60.39627       51.61877
H        101.11606       58.99536       50.74484
H        101.97349       57.44587       52.57140
H        102.84378       58.83902       53.30713
N         98.06110       59.76159       51.26054
C         97.11590       60.54655       50.49744
H         96.56216       61.23648       51.16629
H         97.65138       61.13012       49.71687
H         96.39157       59.87395       49.98935
H         97.95565       58.73565       51.25221
Ca       102.27747       52.46133       47.31817
O        103.41942       55.45587       48.52139
H        102.74946       56.14839       48.74955
H        104.11562       55.94378       48.01437
O        100.93300       54.12443       49.77554
H        101.04460       54.88828       50.39506
H        100.31778       53.51031       50.24861
O        100.77864       52.27928       44.64004
H        101.49776       52.59120       44.03506
H        101.03770       51.35284       44.87476
O        104.90629       52.41117       46.05168
H        105.00094       51.71578       45.35363
H        105.22272       51.97563       46.88277
O        102.95932       54.87850       45.41784
H        102.40151       55.69415       45.35746
H        103.88178       55.21636       45.54173
O        104.04799       52.38981       49.64579
H        103.75150       51.49215       49.94042
H        105.03390       52.36794       49.72927

Ca 1.0



