%chk=apoCaM-CA-Ng.loop2.water2.frame990.chk
%nprocshared=20
%mem=10GB
%nosave
#b3lyp/svp scf=(tight,noincore,xqc) Test 
#IOP(5/87=12) Density=Current Pop=(MK,readradii) iop(6/33=2) iop(6/42=6)

apoCaM-CA-Ng.loop2.water2.frame990 

   -2  1 
C         57.65446       93.55604       41.15239
C         56.57702       92.68573       41.72888
O         56.14361       91.76214       41.05469
H         58.54196       92.93304       40.91345
H         57.28626       94.03803       40.22298
H         57.96219       94.34831       41.86660
N         56.09156       92.91815       42.98208
C         55.04423       92.09561       43.58348
C         55.51264       90.66133       43.84979
O         54.68120       89.85157       44.24323
C         54.55531       92.75909       44.89289
C         53.34263       92.08687       45.47682
O         53.39193       91.55991       46.71501
O         52.30449       92.02841       44.83692
H         56.45816       93.72534       43.51004
H         54.19044       92.07711       42.86948
H         54.27738       93.81527       44.68483
H         55.38252       92.75943       45.63675
N         56.81559       90.27278       43.69361
C         57.28541       88.91317       43.96863
C         58.81510       88.79930       43.87875
O         59.44681       89.71406       43.36335
C         56.64801       87.92629       42.96825
H         57.50550       90.98455       43.42094
H         56.98500       88.68328       45.01342
H         56.94237       88.19993       41.93205
H         56.96625       86.88331       43.14873
H         55.54228       87.93562       43.02581
N         59.52559       87.73278       44.35962
C         58.96567       86.59918       45.09542
C         59.50441       86.56905       46.51832
O         60.41360       87.31672       46.84697
C         59.20797       85.26660       44.34874
C         60.65824       84.89948       44.17445
O         61.12638       83.75183       44.69862
O         61.40517       85.60594       43.51781
H         60.54866       87.76192       44.24241
H         57.87241       86.71424       45.19519
H         58.74193       85.31958       43.34208
H         58.70239       84.44917       44.90714
N         58.90270       85.77045       47.44348
C         59.25093       85.76082       48.85465
C         59.31138       84.34225       49.36433
O         58.40663       83.96310       50.09447
H         58.08428       85.21412       47.15266
H         58.41479       86.26746       49.38574
H         60.17522       86.32917       49.08815
N         60.28836       83.45574       49.02740
C         61.49625       83.76843       48.27272
C         62.43000       84.59395       49.15179
O         62.66523       84.18623       50.28193
C         62.20601       82.44127       47.90183
C         63.35976       82.59170       46.93971
N         64.13243       81.52144       46.64765
O         63.59095       83.66356       46.40409
H         60.17096       82.48714       49.36761
H         61.22714       84.27863       47.32344
H         61.48042       81.75424       47.41482
H         62.56629       81.95416       48.83467
H         63.95008       80.60734       47.08552
H         64.92423       81.60672       45.99531
N         63.04316       85.72285       48.69526
C         63.95671       86.51308       49.51729
C         65.41110       86.38465       49.09642
O         66.24497       87.03297       49.71193
H         62.88903       86.01559       47.71945
H         63.91328       86.19953       50.58226
H         63.63886       87.57647       49.47469
N         65.79873       85.55242       48.08872
C         67.18091       85.34926       47.66212
C         67.31793       85.82250       46.22214
O         66.30628       86.13492       45.60943
C         67.50410       83.83202       47.84186
C         68.92297       83.39041       47.45862
O         67.24628       83.44523       49.16914
H         65.08544       85.01629       47.58892
H         67.87139       85.95668       48.28667
H         66.80728       83.25433       47.19391
H         67.86152       83.95738       49.75638
H         69.11155       83.52451       46.37599
H         69.67987       83.94410       48.05335
H         69.03781       82.30420       47.66357
N         68.53595       85.92399       45.61391
C         68.68233       86.30801       44.21327
C         69.20846       85.07623       43.49845
O         70.31991       84.63935       43.76204
C         69.52076       87.61483       44.07886
C         69.55140       88.19847       42.63948
C         68.90788       88.69757       44.99507
C         70.34320       87.38354       41.62297
H         69.39007       85.70544       46.14760
H         67.68390       86.55037       43.78878
H         70.56075       87.43622       44.43048
H         70.04649       89.19420       42.67707
H         68.51350       88.35041       42.26729
H         69.49229       89.64001       44.93565
H         67.85665       88.91238       44.70193
H         68.91875       88.37954       46.05878
H         71.39072       87.25631       41.96920
H         69.88224       86.40000       41.44006
H         70.35429       87.92668       40.65391
N         68.35945       84.38877       42.68563
C         68.58808       83.04950       42.16361
C         68.41489       82.99458       40.64213
O         67.62129       82.19718       40.16136
C         67.61667       82.08542       42.92136
C         66.17309       82.54626       42.84363
O         65.61228       82.64341       41.76530
O         65.52408       82.96622       43.94868
H         67.43057       84.78496       42.54320
H         69.62633       82.71609       42.38160
H         67.91092       82.08356       43.99417
H         67.71597       81.04521       42.54344
N         69.17718       83.76714       39.81196
C         69.13554       83.63964       38.35344
C         68.80993       84.96286       37.65898
O         69.50438       85.93767       37.91208
C         70.48939       83.07412       37.86233
C         70.48853       82.81989       36.36729
C         70.61723       83.88484       35.45535
C         70.33873       81.51338       35.86911
C         70.57923       83.64985       34.07912
C         70.29557       81.28357       34.48967
C         70.41289       82.35106       33.59598
H         69.86334       84.41415       40.22658
H         68.39038       82.87561       38.05976
H         70.63227       82.10657       38.39367
H         71.34788       83.72488       38.13711
H         70.74799       84.89958       35.80497
H         70.23385       80.67473       36.54578
H         70.67382       84.47742       33.38777
H         70.16489       80.27762       34.11277
H         70.37573       82.17254       32.52920
N         67.85782       85.04516       36.66728
C         67.73455       86.17982       35.75494
C         66.84070       87.30186       36.26219
O         66.68523       88.28117       35.54543
C         67.13444       85.53255       34.50054
C         66.18172       84.52133       35.10762
C         67.04324       83.92890       36.21688
H         68.72916       86.60546       35.49510
H         66.68815       86.23638       33.76605
H         67.93432       84.95484       33.98284
H         65.33919       85.08416       35.56938
H         65.76387       83.76884       34.40569
H         66.40046       83.50330       37.01766
H         67.71399       83.14507       35.80237
N         66.21028       87.23680       37.46559
C         65.32570       88.29484       37.96736
C         66.03908       89.62130       38.21569
O         65.35689       90.58933       38.52351
C         64.62217       87.80380       39.25302
C         65.62244       87.58650       40.39795
C         65.15640       86.51149       41.32247
O         65.69567       85.42479       41.23701
O         64.18594       86.66949       42.24049
H         66.32005       86.37384       38.01582
H         64.53896       88.45934       37.19790
H         64.14901       86.83400       38.97623
H         63.81085       88.48336       39.59253
H         65.89805       88.52682       40.92155
H         66.57729       87.20512       39.97982
N         67.39403       89.75413       38.11558
C         68.05818       91.02047       38.33334
H         69.15474       90.90073       38.19995
H         67.69304       91.77015       37.59923
H         67.86175       91.38121       39.36486
H         67.98816       88.94594       37.88666
Ca        64.41984       84.92665       43.67157
O         62.62580       84.09874       41.14484
H         62.59749       84.93976       40.62300
H         63.18177       83.48757       40.59984
O         63.70433       87.38934       45.55011
H         62.72291       87.34987       45.43377
H         63.97340       88.23749       45.11679

Ca 1.0



