%chk=apoCaM-CA-Ng.loop1.water3.frame1437.chk
%nprocshared=20
%mem=10GB
%nosave
#b3lyp/svp scf=(tight,noincore,xqc) Test 
#IOP(5/87=12) Density=Current Pop=(MK,readradii) iop(6/33=2) iop(6/42=6)

apoCaM-CA-Ng.loop1.water3.frame1437 

   0  1 
C         76.03199       91.16556       20.49435
C         76.46945       91.37233       19.07516
O         75.86346       90.78198       18.19174
H         74.96861       91.46471       20.60160
H         76.13264       90.09022       20.75641
H         76.64634       91.76012       21.20128
N         77.53985       92.16962       18.77984
C         78.04255       92.34394       17.41982
C         79.38047       91.64629       17.28586
O         80.36080       92.22440       16.83739
C         78.04906       93.82781       16.99012
C         78.97761       94.70425       17.79266
O         78.77864       94.89476       19.11036
O         79.90300       95.27687       17.23952
H         78.05083       92.61200       19.55640
H         77.37562       91.81855       16.71193
H         77.01828       94.23512       17.06722
H         78.34827       93.87159       15.91898
N         79.46014       90.34877       17.67722
C         80.65303       89.52427       17.57045
C         81.00302       89.26668       16.10633
O         82.13658       89.55579       15.75043
C         80.49670       88.22777       18.40502
C         80.30671       88.59379       19.89507
C         80.12612       87.37878       20.80597
C         79.91277       87.84945       22.25568
N         79.71039       86.72056       23.16038
H         78.61406       89.92732       18.08764
H         81.50776       90.06305       18.04161
H         81.41885       87.61421       18.30529
H         79.63926       87.61937       18.05288
H         79.40735       89.23262       20.01685
H         81.19128       89.17404       20.24010
H         81.02552       86.72826       20.74853
H         79.23730       86.79935       20.47364
H         79.02024       88.51418       22.30291
H         80.79807       88.43475       22.59204
H         80.55128       86.09945       23.15339
H         79.56541       87.08549       24.12992
H         78.86299       86.17911       22.87350
N         80.13049       88.79863       15.15698
C         78.71652       88.48508       15.35755
C         77.83965       89.53736       14.69184
O         78.34759       90.39236       13.97785
C         78.40392       87.04917       14.89745
C         78.78378       86.79351       13.46681
O         78.26247       87.42062       12.55886
O         79.71395       85.86178       13.18767
H         80.48927       88.72671       14.19126
H         78.45684       88.52473       16.42197
H         77.32483       86.82448       15.03785
H         78.98215       86.34911       15.53977
N         76.51149       89.60195       14.99600
C         75.66425       90.71195       14.58555
C         75.28082       90.70411       13.13028
O         75.59421       89.76894       12.41370
H         76.11909       88.91553       15.65828
H         76.17490       91.66742       14.82481
H         74.71687       90.68097       15.16570
N         74.57890       91.76560       12.64107
C         74.05344       91.88238       11.28045
C         72.56480       92.25411       11.34402
O         72.09638       92.57215       12.42913
C         74.85578       92.99158       10.56156
C         76.30032       92.61076       10.40592
O         77.26288       93.35124       10.98664
O         76.60872       91.63988        9.73419
H         74.42028       92.56173       13.27958
H         74.16469       90.92423       10.73789
H         74.77885       93.93357       11.14716
H         74.47443       93.20922        9.55239
N         71.72861       92.29246       10.26106
C         72.02373       91.81696        8.92035
C         71.97606       90.31660        8.87446
O         70.92574       89.76520        9.17528
H         70.77265       92.65266       10.41245
H         72.96131       92.23093        8.52315
H         71.21824       92.16172        8.23528
N         73.06344       89.58346        8.50429
C         73.03006       88.12594        8.41628
C         73.88485       87.48690        9.53622
O         74.33335       88.44879       10.43528
C         73.52577       87.65981        7.02737
C         72.70312       88.25606        5.87788
O         73.52475       86.25629        6.93602
H         73.95104       90.06912        8.30115
H         71.98370       87.76589        8.54027
H         74.57463       88.00702        6.90017
H         72.58606       85.94723        7.03163
H         73.11469       87.90872        4.90641
H         71.64187       87.93727        5.95227
H         72.74820       89.36528        5.89566
N         73.10182       86.44141       10.21548
C         73.62986       85.85007       11.46332
C         75.06296       85.38334       11.29760
O         75.94722       86.22028       11.19239
C         73.48569       86.79053       12.70462
C         72.12194       87.52600       12.76883
C         73.76921       86.02214       14.00917
C         70.89310       86.61955       12.82835
H         72.96048       85.66633        9.52627
H         72.98300       84.96606       11.66281
H         74.24897       87.59052       12.64995
H         72.02190       88.18060       11.87608
H         72.11619       88.19287       13.65925
H         73.70367       86.70716       14.88127
H         73.04683       85.19158       14.15055
H         74.79211       85.59048       13.99594
H         69.98104       87.25246       12.86646
H         70.83055       85.98184       11.92301
H         70.90927       85.98231       13.73482
N         75.36806       84.05736       11.28302
C         76.73706       83.56706       11.17819
C         76.98416       82.77201        9.90466
O         78.11559       82.34500        9.73231
C         77.11298       82.75760       12.44580
C         76.27254       81.49174       12.63942
O         76.96651       83.56599       13.58455
H         74.60088       83.37328       11.35834
H         77.45110       84.41969       11.13046
H         78.17520       82.42449       12.36157
H         77.78361       84.12385       13.64901
H         75.20191       81.73884       12.79016
H         76.37333       80.81493       11.76563
H         76.62565       80.95116       13.54312
N         76.01398       82.53500        8.96407
C         76.29672       81.78878        7.73423
C         77.29959       82.57071        6.89447
O         76.92969       83.55911        6.27646
C         75.00530       81.47232        6.93672
C         74.06947       80.55183        7.73411
O         74.33406       82.66398        6.61225
H         75.05931       82.88282        9.12533
H         76.74836       80.81384        8.02548
H         75.30478       80.94043        6.00345
H         73.67636       82.44185        5.90245
H         74.58585       79.59971        7.97977
H         73.73597       81.03167        8.67781
H         73.16886       80.31335        7.12980
N         78.62628       82.24817        6.96352
C         79.73069       83.04871        6.43261
C         79.72447       84.46719        6.99509
O         78.74125       84.87882        7.58953
C         79.80179       83.02547        4.89320
C         79.98740       81.58886        4.37595
C         80.26347       81.55395        2.86796
C         80.48471       80.11031        2.39074
N         80.82552       80.07040        0.96916
H         78.89510       81.42421        7.52222
H         80.66848       82.58045        6.80946
H         80.68559       83.62421        4.58093
H         78.89500       83.48328        4.44224
H         79.08157       80.98785        4.61056
H         80.86085       81.13215        4.89214
H         81.18157       82.14606        2.65804
H         79.41189       82.00504        2.31378
H         79.56127       79.51515        2.56783
H         81.31477       79.64861        2.97145
H         80.96138       79.07507        0.67831
H         80.05532       80.48953        0.39976
H         81.71589       80.59316        0.80028
N         80.83447       85.25460        6.91504
C         80.88628       86.60075        7.48977
C         80.41245       86.61740        8.94148
O         79.49046       87.37224        9.21768
C         82.29044       87.24101        7.39557
C         82.75395       87.47570        5.95241
C         84.10415       88.13495        5.93872
O         85.07016       87.56984        6.42732
O         84.25613       89.35328        5.38576
H         81.67880       84.86121        6.47329
H         80.19168       87.25395        6.91257
H         83.04061       86.62521        7.93047
H         82.25059       88.23437        7.89785
H         82.01960       88.13283        5.43756
H         82.82282       86.51876        5.39594
N         80.92586       85.84093        9.93959
C         81.96494       84.84091        9.81272
H         82.80976       85.10650       10.48067
H         81.55608       83.85747       10.12715
H         82.35119       84.72484        8.78863
H         80.52100       85.95027       10.87843
Ca        76.52548       88.72870        9.85819
O         76.16518       85.86065        8.17828
H         76.36499       86.27806        7.30346
H         76.87381       86.20181        8.77823
O         77.92254       89.21696        7.18421
H         77.14093       88.83867        6.70852
H         77.73621       90.18808        7.23548
O         79.79598       90.53034       10.66013
H         80.74745       90.74607       10.49096
H         79.30344       91.32973       10.34674

Ca 1.0



