%chk=apoCaM-CA-Ng.loop3.water3.frame855.chk
%nprocshared=20
%mem=10GB
%nosave
#b3lyp/svp scf=(tight,noincore,xqc) Test 
#IOP(5/87=12) Density=Current Pop=(MK,readradii) iop(6/33=2) iop(6/42=6)

apoCaM-CA-Ng.loop3.water3.frame855 

   0  1 
C         70.92713       65.33135      -25.85215
C         71.66234       66.19623      -26.83443
O         71.68189       65.86656      -28.01178
H         69.85986       65.26184      -26.15165
H         71.37009       64.31428      -25.83981
H         70.97347       65.75208      -24.82539
N         72.27499       67.34260      -26.42367
C         72.94128       68.25689      -27.35047
C         74.16990       67.57779      -27.96327
O         74.66397       66.63669      -27.35386
C         73.33624       69.54871      -26.57963
C         73.41535       70.80175      -27.40997
O         72.72154       71.89203      -27.03602
O         74.10427       70.86322      -28.40572
H         72.21523       67.59092      -25.42389
H         72.19505       68.50266      -28.12606
H         74.28229       69.36775      -26.02512
H         72.55597       69.77758      -25.82150
N         74.73231       67.99635      -29.13984
C         75.96485       67.40538      -29.68314
C         77.11648       68.42426      -29.70965
O         78.26526       68.01863      -29.79058
C         75.69993       66.80064      -31.07935
C         76.72211       65.71592      -31.47446
C         76.49121       65.18001      -32.89871
C         76.98679       66.16474      -33.97202
N         76.74878       65.64352      -35.31756
H         74.26406       68.74952      -29.66154
H         76.28122       66.58212      -29.00687
H         75.65408       67.62041      -31.82052
H         74.70753       66.29717      -31.07128
H         76.58369       64.87353      -30.76048
H         77.77077       66.06705      -31.38649
H         75.41512       64.93588      -33.04224
H         77.07332       64.24029      -33.01928
H         78.08070       66.31970      -33.83076
H         76.48232       67.14816      -33.87451
H         77.15944       66.30449      -36.01637
H         77.20024       64.70720      -35.43373
H         75.72041       65.56506      -35.49054
N         76.86929       69.76522      -29.61758
C         77.86764       70.82194      -29.48956
C         77.69424       71.58556      -28.16643
O         78.44401       72.52377      -27.92924
C         77.79071       71.77147      -30.71058
C         76.40577       72.27679      -31.03667
O         75.66955       72.92897      -30.12358
O         75.94183       72.09533      -32.15025
H         75.90349       70.08592      -29.62513
H         78.89572       70.39941      -29.46804
H         78.16773       71.22381      -31.60174
H         78.46800       72.63627      -30.54252
N         76.77383       71.20715      -27.23274
C         76.62111       71.80910      -25.91835
C         76.08970       73.23210      -25.85114
O         75.91077       73.66937      -24.72231
H         76.20313       70.37030      -27.39935
H         77.59243       71.75790      -25.38150
H         75.89635       71.18756      -25.34642
N         75.82081       74.02588      -26.93820
C         75.31712       75.39855      -26.78491
C         74.02348       75.64934      -27.54486
O         73.62289       74.83545      -28.36564
C         76.38711       76.45030      -27.18807
C         76.39991       76.83526      -28.65792
N         76.67246       75.94473      -29.63580
O         76.14039       77.99071      -28.96353
H         76.00243       73.66359      -27.87631
H         75.10505       75.57543      -25.70896
H         77.39218       76.12329      -26.84465
H         76.14984       77.38448      -26.63150
H         76.90715       74.97166      -29.41729
H         76.64698       76.23843      -30.62447
N         73.34682       76.81332      -27.33170
C         72.20167       77.26643      -28.10328
C         71.07376       76.26638      -28.17034
O         70.76960       75.61690      -27.17995
H         73.68801       77.44927      -26.59444
H         72.53472       77.51485      -29.13480
H         71.82083       78.20725      -27.65049
N         70.36657       76.14417      -29.32931
C         69.27694       75.19361      -29.51328
C         69.87297       73.75971      -29.58541
O         70.69377       73.75347      -30.71698
C         68.50511       75.52589      -30.82593
C         67.88205       76.90295      -30.80867
C         66.87051       77.21371      -29.88541
C         68.29464       77.88499      -31.72808
C         66.28390       78.48297      -29.87945
C         67.70903       79.15488      -31.71773
C         66.70251       79.45865      -30.79573
O         66.14492       80.68635      -30.80092
H         70.60635       76.77397      -30.11156
H         68.56894       75.27826      -28.66027
H         67.69342       74.78795      -30.99824
H         69.20573       75.45209      -31.68692
H         66.53013       76.47120      -29.17531
H         69.07069       77.67178      -32.45298
H         65.50269       78.70565      -29.16395
H         68.03673       79.90315      -32.42906
H         65.44437       80.93604      -30.18146
N         68.82539       72.72497      -29.72136
C         69.03968       71.36775      -29.13583
C         70.02015       70.44128      -29.91386
O         71.38284       70.45131      -29.56423
C         69.35070       71.31776      -27.60658
C         69.36711       69.84880      -27.06637
C         68.40865       72.18133      -26.75689
C         68.02698       69.10206      -27.13582
H         67.93558       73.08821      -29.30477
H         68.05463       70.87463      -29.26765
H         70.36344       71.73406      -27.46301
H         69.70545       69.85143      -26.00851
H         70.10446       69.24602      -27.62907
H         67.35208       71.86910      -26.87802
H         68.69163       72.09505      -25.68469
H         68.50096       73.25024      -27.03428
H         67.25880       69.60230      -26.51274
H         67.65648       69.01141      -28.17675
H         68.16157       68.07050      -26.74688
N         69.74182       70.24070      -31.33807
C         70.53376       69.13945      -31.94163
C         69.99030       68.75931      -33.30794
O         70.75716       68.76006      -34.26128
C         70.67570       67.86984      -31.06533
O         69.43023       67.32675      -30.73261
H         68.72611       70.00553      -31.38077
H         71.56518       69.51059      -32.08830
H         71.24001       68.11077      -30.14333
H         71.28342       67.11643      -31.61607
H         69.60558       66.67909      -29.99969
N         68.67940       68.41235      -33.47913
C         68.12506       67.97229      -34.75626
C         68.35257       68.99290      -35.86972
O         68.61776       70.14705      -35.56229
C         66.61603       67.73020      -34.58883
H         68.04935       68.43660      -32.66437
H         68.63486       67.02350      -35.01241
H         66.11274       68.68096      -34.30484
H         66.14374       67.36630      -35.51386
H         66.42872       66.98020      -33.79262
N         68.28036       68.67403      -37.19891
C         68.12483       67.32179      -37.72872
C         67.57352       67.36069      -39.14953
O         68.20560       67.98658      -39.98997
C         69.48972       66.61590      -37.76629
H         68.46754       69.43303      -37.87357
H         67.47251       66.72723      -37.07584
H         69.36904       65.58302      -38.16065
H         70.20050       67.16394      -38.42177
H         69.94247       66.54511      -36.75816
N         66.45251       66.68662      -39.55210
C         65.60029       65.87536      -38.69306
C         64.73625       66.70560      -37.74749
O         64.11389       66.11519      -36.87386
C         64.70017       64.88070      -39.48343
C         63.58097       65.43591      -40.40120
C         63.95856       65.64670      -41.85296
O         64.77505       66.63920      -42.24380
O         63.46199       64.92911      -42.70795
H         66.25452       66.70908      -40.55204
H         66.26573       65.22203      -38.08757
H         64.17871       64.29622      -38.69146
H         65.31009       64.14116      -40.04588
H         63.09540       66.33454      -39.96580
H         62.80418       64.63932      -40.42518
N         64.61163       68.05837      -37.86244
C         63.75795       68.82091      -36.97351
H         62.71134       68.45220      -37.04031
H         64.10958       68.72495      -35.92531
H         63.77290       69.89435      -37.25628
H         65.10675       68.56754      -38.60749
Ca        72.28963       72.36336      -30.18128
O         72.03601       72.33857      -33.07999
H         72.20137       71.61185      -33.73057
H         71.05807       72.48872      -33.11635
O         74.00870       69.88797      -32.10097
H         73.79393       69.35464      -32.90671
H         74.98481       69.78334      -31.99283
O         73.63784       74.86399      -31.66975
H         74.08393       74.52609      -32.48672
H         73.01309       75.55917      -31.99646

Ca 1.0



