%chk=apoCaM-CA-Ng.loop4.water2.frame98.chk
%nprocshared=20
%mem=10GB
%nosave
#b3lyp/svp scf=(tight,noincore,xqc) Test 
#IOP(5/87=12) Density=Current Pop=(MK,readradii) iop(6/33=2) iop(6/42=6)

apoCaM-CA-Ng.loop4.water2.frame98 

   -3  1 
C         31.41748       54.62060       98.60780
C         31.03327       56.03096       99.04393
O         32.17129       56.62873       99.58772
H         31.87530       54.07248       99.45834
H         30.52044       54.06547       98.26575
H         32.15614       54.66994       97.77758
N         30.51771       56.79093       97.89593
C         29.98874       58.14420       98.17022
C         31.05935       59.14324       98.59125
O         30.90369       59.80376       99.60192
C         28.61978       58.18151       98.93248
C         28.38959       57.52695      100.28766
O         29.05557       57.88825      101.40263
O         27.47839       56.72124      100.39698
H         29.75230       56.23711       97.44415
H         29.70386       58.55582       97.17490
H         27.87905       57.71561       98.24359
H         28.32212       59.24795       99.02652
N         32.13271       59.34993       97.76307
C         33.19209       60.36297       97.87892
C         32.63744       61.77778       97.70381
O         32.91610       62.37960       96.67547
C         34.09737       60.19296       99.13988
C         35.20326       61.28183       99.25688
C         34.74545       58.79958       99.16951
C         36.22283       61.30407       98.11066
H         32.18702       58.75306       96.92306
H         33.85650       60.19653       97.00095
H         33.46384       60.28825      100.04249
H         35.76053       61.12471      100.20726
H         34.73094       62.28399       99.31954
H         35.36903       58.67856      100.08108
H         33.97627       58.01922       99.17974
H         35.37422       58.62012       98.27411
H         36.78725       60.35104       98.05141
H         35.73032       61.50262       97.13789
H         36.95782       62.11567       98.28990
N         31.89354       62.39378       98.66624
C         31.39803       63.76252       98.54231
C         32.42136       64.75171       99.09596
O         32.83536       65.60613       98.32489
C         29.97931       63.93073       99.13491
C         29.00387       62.96586       98.51853
O         28.79652       62.97984       97.31555
O         28.34680       62.08434       99.29652
H         31.74343       61.90444       99.54906
H         31.27611       64.00462       97.46051
H         29.62539       64.96634       98.93848
H         29.96069       63.78602      100.22898
N         32.96198       64.70883      100.35392
C         32.66181       63.72364      101.38095
C         32.59838       64.32149      102.77007
O         32.86769       65.50567      102.91460
H         33.73062       65.36908      100.55231
H         33.49156       62.99054      101.38241
H         31.72962       63.20620      101.18200
N         32.30961       63.57782      103.88378
C         31.83613       62.19181      103.92661
C         32.70493       61.24218      103.10099
O         32.18615       60.64068      102.17205
C         30.33056       62.15340      103.54063
C         29.66438       60.81846      103.77189
O         28.35547       60.67788      103.48955
O         30.28409       59.86770      104.22260
H         32.39129       64.05191      104.79729
H         31.86462       61.85791      104.98821
H         30.18173       62.43581      102.48177
H         29.78932       62.89583      104.16656
N         34.03305       61.03747      103.33334
C         34.79793       61.62260      104.41871
C         35.92788       62.47826      103.90298
O         36.09890       62.62005      102.69972
H         34.53721       60.40514      102.69475
H         35.21859       60.80310      105.03938
H         34.16616       62.24850      105.07676
N         36.72528       63.12493      104.79621
C         37.76879       64.06793      104.40318
C         39.02234       63.40693      103.83901
O         39.89326       64.14181      103.39505
C         38.07745       65.02596      105.57274
C         36.84250       65.91543      105.84125
C         37.02398       66.92536      106.94109
N         36.03159       67.80984      107.19607
O         38.05362       66.96110      107.59853
H         36.50618       63.01302      105.79900
H         37.37298       64.70650      103.58086
H         38.91876       65.69714      105.29400
H         38.37000       64.44772      106.47740
H         35.95870       65.29133      106.09310
H         36.61598       66.47892      104.90918
H         35.16312       67.79707      106.63950
H         36.13205       68.51575      107.93958
N         39.15921       62.05197      103.73662
C         40.24276       61.42074      102.98040
C         41.04726       60.41185      103.79034
O         41.85047       59.72052      103.17493
C         39.67383       60.78770      101.67206
C         39.14240       61.87710      100.72779
C         38.58076       59.74304      101.92863
H         38.42606       61.43971      104.11819
H         40.99070       62.16968      102.63787
H         40.50792       60.28651      101.13219
H         39.94892       62.60372      100.49011
H         38.80283       61.42255       99.77417
H         38.29282       62.42711      101.18180
H         38.95760       58.93798      102.59199
H         37.69280       60.21826      102.38963
H         38.25651       59.28436      100.96995
N         40.97800       60.31435      105.15365
C         41.82676       59.38279      105.90114
C         41.06286       58.47367      106.85135
O         41.69379       57.55324      107.35246
C         42.88738       60.15799      106.71228
C         43.77717       61.01157      105.84277
N         44.57431       60.45267      104.90156
O         43.79009       62.22270      106.00294
H         40.37719       60.96883      105.67566
H         42.36025       58.70551      105.19866
H         43.53849       59.44714      107.26787
H         42.36778       60.80060      107.45772
H         44.59081       59.43274      104.75799
H         45.18597       61.04266      104.31787
N         39.75839       58.68228      107.21543
C         39.10102       57.85210      108.22157
C         37.77671       57.29475      107.73609
O         36.88788       58.05619      107.38175
C         38.84427       58.64112      109.52261
C         40.09477       59.18013      110.18386
C         40.17371       60.54134      110.52396
C         41.17349       58.33438      110.50636
C         41.30303       61.04585      111.17546
C         42.30833       58.84497      111.14415
C         42.37407       60.20271      111.48578
O         43.45484       60.70574      112.11597
H         39.23639       59.48535      106.84116
H         39.74701       56.99646      108.50441
H         38.36760       57.94522      110.24853
H         38.12530       59.46716      109.32754
H         39.35252       61.21172      110.30399
H         41.14470       57.27984      110.26757
H         41.34207       62.09363      111.44520
H         43.13212       58.18258      111.37973
H         44.21452       60.15554      112.35472
N         37.55655       55.95113      107.81012
C         36.26729       55.29781      107.61740
C         35.76284       55.38255      106.18185
O         34.56339       55.32075      105.95611
C         35.28159       55.77362      108.71713
C         34.05875       54.86225      108.90873
C         33.25593       55.30096      110.10106
O         32.73995       56.40705      110.12555
O         33.10444       54.47267      111.15266
H         38.33236       55.34324      108.11369
H         36.44674       54.21544      107.80338
H         34.96431       56.82313      108.53465
H         35.83920       55.74847      109.68121
H         34.41100       53.82234      109.08411
H         33.40006       54.86701      108.01909
N         36.64870       55.42703      105.14697
C         36.26793       55.32991      103.74198
C         36.97705       54.16613      103.05507
O         36.76298       53.99230      101.86279
C         36.61317       56.64823      103.02317
C         35.77135       57.83269      103.51949
C         34.30978       57.63882      103.23017
O         33.93354       57.46985      102.08244
O         33.40876       57.66123      104.23004
H         37.65379       55.51961      105.35704
H         35.17723       55.14389      103.62898
H         36.43397       56.54546      101.92944
H         37.69229       56.87098      103.16831
H         36.10210       58.73970      102.98323
H         35.92980       57.99546      104.60625
N         37.82350       53.32460      103.72275
C         38.53597       52.23801      103.08143
H         39.62727       52.38841      103.22134
H         38.24293       51.27647      103.55133
H         38.33212       52.17666      101.99213
H         37.99064       53.43626      104.73137
Ca        31.24958       57.76552      101.27824
O         31.71704       55.07128      103.22978
H         31.92957       55.13411      104.19499
H         32.50907       54.63285      102.82910
O         29.48257       56.91350      104.34755
H         28.81349       57.60632      104.57641
H         29.03924       56.05775      104.57352

Ca 1.0



