%chk=apoCaM-CA-Ng.loop3.water4.frame308.chk
%nprocshared=20
%mem=10GB
%nosave
#b3lyp/svp scf=(tight,noincore,xqc) Test 
#IOP(5/87=12) Density=Current Pop=(MK,readradii) iop(6/33=2) iop(6/42=6)

apoCaM-CA-Ng.loop3.water4.frame308 

   0  1 
C         53.25038       39.37448       18.00576
C         53.96374       38.19850       18.62224
O         54.97913       37.77742       18.08842
H         52.31312       39.60893       18.55436
H         53.89519       40.27402       17.98188
H         52.95522       39.11345       16.96335
N         53.40844       37.55194       19.69385
C         53.83434       36.26108       20.25546
C         53.65876       35.09519       19.26762
O         53.89079       33.95738       19.65037
C         55.25175       36.30435       20.86913
C         55.40520       37.33369       21.96382
O         56.59056       37.45825       22.58979
O         54.47194       38.04300       22.30804
H         52.56642       37.97019       20.11546
H         53.14205       36.03042       21.09587
H         56.01188       36.48522       20.08291
H         55.46336       35.31389       21.33265
N         53.19551       35.30485       18.00367
C         52.88281       34.29834       17.00608
C         53.74287       34.48896       15.76275
O         53.44591       33.88588       14.74050
C         51.36577       34.41056       16.69268
C         50.85933       35.79212       16.18221
C         49.32295       35.91619       16.19328
C         48.57141       34.73263       15.56820
N         47.12743       34.87999       15.75388
H         53.01057       36.25261       17.69470
H         53.06376       33.26774       17.38345
H         50.82384       34.16211       17.63001
H         51.11044       33.64049       15.93186
H         51.27899       35.98504       15.17329
H         51.17439       36.62485       16.84200
H         49.03329       36.86963       15.69476
H         49.00420       35.98371       17.25640
H         48.87551       33.80090       16.08795
H         48.81613       34.63546       14.48790
H         46.65794       33.98417       15.48916
H         46.90948       35.07328       16.75975
H         46.75957       35.65594       15.15891
N         54.85318       35.28377       15.78756
C         55.64981       35.59294       14.60874
C         56.79704       34.59321       14.46296
O         57.09315       33.87851       15.41054
C         56.03320       37.08942       14.70984
C         56.75663       37.65859       13.53397
O         58.02267       37.30860       13.29940
O         56.23286       38.51077       12.83591
H         55.15677       35.69950       16.67877
H         55.00962       35.46836       13.70856
H         56.64449       37.26466       15.62251
H         55.08559       37.66182       14.82917
N         57.37768       34.38045       13.24235
C         58.37290       33.33836       12.98239
C         59.74372       33.63685       13.53914
O         60.60161       32.76612       13.51923
H         57.02861       34.91945       12.44149
H         58.51059       33.22094       11.88651
H         58.00071       32.37770       13.39298
N         60.02818       34.86763       14.01505
C         61.28812       35.28376       14.58580
C         61.01120       35.71210       16.02323
O         61.89666       36.24559       16.66664
C         61.80703       36.48217       13.75537
C         61.37572       36.39162       12.28610
N         61.97388       35.29771       11.52006
O         61.52431       37.61949       11.66848
H         59.30981       35.58933       13.97677
H         62.04219       34.46802       14.54524
H         62.90727       36.61986       13.85653
H         61.32467       37.41359       14.12637
H         62.87183       34.97705       11.94191
H         62.13479       35.59267       10.52806
N         59.76068       35.54583       16.56799
C         59.30856       36.11836       17.81443
C         59.17338       37.62695       17.74246
O         58.97710       38.23215       18.78463
H         59.05043       35.00299       16.07629
H         59.98734       35.80263       18.62849
H         58.28569       35.73300       18.03872
N         59.23575       38.30844       16.56121
C         59.08315       39.75851       16.47303
C         59.74858       40.27579       15.22574
O         59.68209       39.65135       14.17386
C         57.60799       40.16941       16.58328
C         57.33055       41.62326       16.25489
C         57.90619       42.68170       16.98161
C         56.45464       41.92174       15.19810
C         57.59268       44.01022       16.65928
C         56.14408       43.24312       14.87914
C         56.70545       44.29387       15.61375
O         56.39381       45.57414       15.32707
H         59.35632       37.78029       15.68361
H         59.64400       40.22214       17.31231
H         57.25943       39.95857       17.61597
H         57.02171       39.53582       15.89161
H         58.59048       42.48332       17.79660
H         56.00105       41.12616       14.62121
H         58.03318       44.82130       17.22599
H         55.46026       43.44560       14.06444
H         55.76119       45.80381       14.63046
N         60.49574       41.40946       15.31427
C         61.42896       41.78109       14.28189
C         62.52619       40.75135       14.34008
O         62.79250       40.13330       13.32885
C         61.88066       43.26834       14.39639
C         60.65717       44.23200       14.43237
C         62.81072       43.63286       13.21898
C         59.61529       44.00060       13.33585
H         60.51588       41.93938       16.19772
H         60.93220       41.70945       13.29407
H         62.44531       43.45749       15.33651
H         61.01945       45.28145       14.37651
H         60.13461       44.12871       15.40543
H         62.39818       43.28165       12.24959
H         62.95726       44.73279       13.14937
H         63.81016       43.17354       13.36315
H         60.07439       44.03156       12.32692
H         59.12189       43.02132       13.49683
H         58.82162       44.77255       13.39977
N         63.09483       40.39354       15.52969
C         64.05107       39.29517       15.62153
C         65.33579       39.62655       14.85584
O         66.08714       38.71938       14.52690
C         64.35745       38.95148       17.09787
O         63.20110       38.89878       17.89708
H         62.77892       40.86196       16.39143
H         63.56270       38.40871       15.15899
H         64.98681       39.75935       17.51752
H         64.91530       37.99195       17.17898
H         62.55020       38.29973       17.46323
N         65.62450       40.92740       14.52953
C         66.75388       41.40254       13.73337
C         66.70153       40.96475       12.25957
O         67.67298       41.18668       11.55113
C         68.09504       41.12517       14.42841
H         65.00075       41.66633       14.87863
H         66.68838       42.51225       13.70574
H         68.90450       41.67079       13.89434
H         68.06678       41.52827       15.46628
H         68.34825       40.04814       14.46316
N         65.56811       40.42356       11.71332
C         65.39106       40.02841       10.31398
C         64.25335       40.79587        9.61260
O         63.56604       41.58254       10.24754
C         65.09627       38.52613       10.28624
H         64.77206       40.27550       12.32260
H         66.32125       40.22993        9.74145
H         64.91768       38.16514        9.25350
H         65.95745       37.96984       10.71313
H         64.19622       38.30188       10.90131
N         64.06427       40.64102        8.25686
C         63.08466       41.34593        7.40696
C         63.18595       42.86674        7.52596
O         62.23726       43.55107        7.16267
C         61.62462       40.88119        7.62453
C         61.39847       39.37973        7.40079
C         60.00216       39.04237        7.81898
O         59.79630       38.70180        9.09017
O         59.04397       39.31757        7.11735
H         64.71000       40.00873        7.76365
H         63.29701       41.09145        6.34524
H         60.94895       41.41583        6.91486
H         61.31759       41.15905        8.64509
H         62.09992       38.81549        8.04905
H         61.56627       39.06821        6.34573
N         64.30830       43.46997        8.01105
C         64.42738       44.90153        8.19924
H         65.27488       45.28744        7.59643
H         63.50670       45.45125        7.90988
H         64.62580       45.10341        9.27255
H         65.12663       42.90181        8.26738
Ca        59.38727       38.15155       11.16848
O         56.93548       39.28464        9.59815
H         56.25268       39.93586        9.30117
H         57.15656       38.77255        8.78090
O         57.91514       41.26052       12.01684
H         57.07120       41.46185       12.49118
H         58.13813       42.10437       11.54976
O         60.83010       40.45733       11.13462
H         61.05765       41.35853       10.80637
H         61.70276       40.00870       11.23981
O         57.68942       36.16638       10.24296
H         58.14441       35.55935        9.60809
H         56.78491       35.78421       10.35959

Ca 1.0



