%chk=apoCaM-CA-Ng.loop4.water5.frame602.chk
%nprocshared=20
%mem=10GB
%nosave
#b3lyp/svp scf=(tight,noincore,xqc) Test 
#IOP(5/87=12) Density=Current Pop=(MK,readradii) iop(6/33=2) iop(6/42=6)

apoCaM-CA-Ng.loop4.water5.frame602 

   -3  1 
C         42.00503       31.23049      -17.51131
C         41.06349       32.39675      -17.47125
O         41.52288       33.52776      -17.53735
H         42.71890       31.29868      -16.66496
H         41.45869       30.26623      -17.43822
H         42.56633       31.24322      -18.46937
N         39.71785       32.19107      -17.38894
C         38.72047       33.25448      -17.38545
C         38.86376       34.08859      -18.64696
O         38.98118       35.30524      -18.56497
C         38.80520       34.11323      -16.09739
C         38.64395       33.29502      -14.84467
O         37.61610       33.53677      -14.00902
O         39.45614       32.42817      -14.56298
H         39.36635       31.22154      -17.36137
H         37.71346       32.78003      -17.40738
H         37.99829       34.87846      -16.12687
H         39.77737       34.64616      -16.04529
N         38.92210       33.47544      -19.86552
C         39.14325       34.23375      -21.09701
C         37.86411       35.00090      -21.43781
O         36.84548       34.70476      -20.82606
C         39.64814       33.30945      -22.25944
C         38.52414       32.42248      -22.84880
C         40.86923       32.48095      -21.79629
C         38.98715       31.57245      -24.03453
H         38.86590       32.44762      -19.89534
H         39.96943       34.95065      -20.88553
H         40.00440       33.95153      -23.08738
H         37.71990       33.08770      -23.23133
H         38.09034       31.76067      -22.07096
H         41.34209       31.95097      -22.64679
H         41.64042       33.14229      -21.35487
H         40.59249       31.71916      -21.03874
H         38.11650       31.04121      -24.47172
H         39.44099       32.21507      -24.81977
H         39.72246       30.80692      -23.71372
N         37.76996       35.99610      -22.36326
C         38.85201       36.57736      -23.14461
C         39.05111       38.02119      -22.73435
O         40.18019       38.39085      -22.43906
C         38.60368       36.44069      -24.66414
C         37.36297       37.12611      -25.17699
O         37.45914       38.03900      -25.98171
O         36.14091       36.71307      -24.79141
H         36.83363       36.40801      -22.47814
H         39.80996       36.06475      -22.94747
H         38.54725       35.36411      -24.93286
H         39.48878       36.86940      -25.18697
N         37.99743       38.88319      -22.62008
C         38.17436       40.24055      -22.15728
C         38.70680       41.10132      -23.26582
O         37.96815       41.39182      -24.19595
H         37.03551       38.55795      -22.78401
H         38.83542       40.23709      -21.26122
H         37.20341       40.67294      -21.83281
N         39.98839       41.54518      -23.22894
C         40.55243       42.46843      -24.20603
C         41.62663       41.83538      -25.07599
O         42.21246       42.55620      -25.87361
C         41.06621       43.74413      -23.48237
C         42.10646       43.57871      -22.39276
O         42.59253       44.67770      -21.78734
O         42.49614       42.48526      -22.02214
H         40.58460       41.20659      -22.46208
H         39.77120       42.81110      -24.91964
H         40.19520       44.24958      -23.01518
H         41.48284       44.43329      -24.24793
N         41.93905       40.50627      -25.01774
C         43.02103       39.93647      -25.80809
C         44.38792       40.40791      -25.33748
O         45.37517       40.01069      -25.93902
H         41.40591       39.87151      -24.40722
H         42.86615       40.18310      -26.88210
H         43.00569       38.82897      -25.70889
N         44.52444       41.21116      -24.23633
C         45.77890       41.66247      -23.65677
C         46.59681       40.51658      -23.08041
O         47.70844       40.78116      -22.64530
C         46.57547       42.55356      -24.64073
C         45.80980       43.85377      -24.95433
C         46.62442       44.80014      -25.79961
N         47.79913       45.30033      -25.34570
O         46.20893       45.13716      -26.89799
H         43.69292       41.51212      -23.73494
H         45.55394       42.30744      -22.77720
H         46.82233       42.01290      -25.57850
H         47.53168       42.83239      -24.15093
H         45.55958       44.37892      -24.00636
H         44.85876       43.60711      -25.47462
H         48.16200       45.04430      -24.41597
H         48.34732       45.95586      -25.92212
N         46.11083       39.23725      -22.98948
C         46.90894       38.12781      -22.47560
C         46.27758       37.43925      -21.26086
O         46.92616       36.55434      -20.71961
C         47.17658       37.13935      -23.65099
C         48.33573       36.17635      -23.35448
C         45.92173       36.34576      -24.06071
H         45.16190       39.02472      -23.32016
H         47.89433       38.51774      -22.14315
H         47.50539       37.74857      -24.52301
H         49.25141       36.75486      -23.10621
H         48.10679       35.48464      -22.52123
H         48.55413       35.56315      -24.25395
H         46.14371       35.70369      -24.93850
H         45.59001       35.68806      -23.23047
H         45.08442       37.01730      -24.33845
N         45.03392       37.74971      -20.77819
C         44.41142       36.99675      -19.68617
C         44.09270       37.87091      -18.48750
O         44.22860       39.08571      -18.55144
C         43.11295       36.32768      -20.19697
C         43.38387       35.35464      -21.31524
N         42.82793       35.52804      -22.53723
O         44.10482       34.38923      -21.11043
H         44.48039       38.50125      -21.21620
H         45.09419       36.20107      -19.31705
H         42.40465       37.11631      -20.53604
H         42.61543       35.76143      -19.38075
H         42.21717       36.33364      -22.73256
H         43.00924       34.85208      -23.29413
N         43.63124       37.27752      -17.34868
C         43.14911       37.98750      -16.16928
C         43.95168       37.58847      -14.92301
O         44.77963       36.69034      -15.00235
C         41.64652       37.62812      -16.07201
C         40.88081       38.19448      -14.90942
C         40.25995       37.31643      -14.00970
C         40.74753       39.57878      -14.72233
C         39.53239       37.80657      -12.92645
C         40.01685       40.07136      -13.63478
C         39.40966       39.18814      -12.73302
O         38.70800       39.67496      -11.69035
H         43.55957       36.24697      -17.33423
H         43.26270       39.08496      -16.30595
H         41.56943       36.51749      -16.05064
H         41.14494       37.96810      -17.00502
H         40.33716       36.24814      -14.15455
H         41.20893       40.27197      -15.41407
H         39.06290       37.11093      -12.24216
H         39.92063       41.13997      -13.49394
H         38.27360       39.09341      -11.04962
N         43.78103       38.25747      -13.74067
C         44.50252       37.96869      -12.50018
C         43.48309       37.72108      -11.37753
O         43.30257       38.58989      -10.53426
C         45.42015       39.16912      -12.16366
C         46.31143       38.88667      -10.93529
C         47.08705       40.10545      -10.53080
O         46.91282       40.63301       -9.30303
O         47.87792       40.62202      -11.30312
H         43.12650       39.05101      -13.71639
H         45.17305       37.09133      -12.61472
H         44.79272       40.07055      -11.98481
H         46.08317       39.38107      -13.03148
H         47.01286       38.05492      -11.16349
H         45.69747       38.57852      -10.06492
N         42.72333       36.59392      -11.29800
C         42.85396       35.45797      -12.19699
C         44.13741       34.68219      -11.94780
O         44.85356       34.97628      -10.99899
C         41.62416       34.54481      -12.08109
C         41.46010       33.78837      -10.75367
C         40.18424       33.01580      -10.86203
O         40.21946       31.68016      -10.99092
O         39.12277       33.60740      -10.97925
H         42.00158       36.56534      -10.56079
H         42.84119       35.83995      -13.23506
H         41.65841       33.79495      -12.90202
H         40.72629       35.17434      -12.23854
H         41.41380       34.46330       -9.87284
H         42.31453       33.08991      -10.62176
N         44.48333       33.65498      -12.77010
C         45.67469       32.86371      -12.55447
H         46.57514       33.51341      -12.57739
H         45.61293       32.34872      -11.57180
H         45.76714       32.09586      -13.35156
H         43.88415       33.42523      -13.57674
Ca        38.46769       30.70878      -12.02567
O         35.83600       29.93737      -13.14135
H         35.55003       29.85116      -12.19724
H         35.04066       30.29143      -13.61195
O         41.36128       29.61826      -12.79513
H         41.94609       29.94784      -12.06712
H         41.77842       29.96411      -13.62356
O         38.07635       28.89635       -9.82447
H         37.15867       29.22452      -10.00086
H         38.56273       29.69093       -9.48775
O         38.39957       27.83997      -13.14440
H         39.09440       27.37073      -12.61771
H         37.56445       27.34370      -12.95295
O         36.16126       31.89696      -10.30170
H         36.93097       32.43220      -10.61427
H         35.37719       32.47014      -10.48955

Ca 1.0



