%chk=apoCaM-CA-Ng.loop4.water3.frame379.chk
%nprocshared=20
%mem=10GB
%nosave
#b3lyp/svp scf=(tight,noincore,xqc) Test 
#IOP(5/87=12) Density=Current Pop=(MK,readradii) iop(6/33=2) iop(6/42=6)

apoCaM-CA-Ng.loop4.water3.frame379 

   -3  1 
C         40.43949       92.49917        2.34792
C         41.87642       92.11317        2.18936
O         42.43060       92.34313        1.12593
H         39.83235       91.60198        2.58307
H         40.34931       93.23798        3.17181
H         40.05482       92.96477        1.41414
N         42.55793       91.55720        3.23411
C         43.97911       91.23328        3.20061
C         44.77966       92.47835        2.88218
O         45.35095       92.57485        1.81268
C         44.30516       89.94444        2.39356
C         43.88051       89.87153        0.95603
O         44.37844       90.60164        0.12053
O         42.99196       88.93590        0.56945
H         42.05894       91.41880        4.12572
H         44.29931       90.94411        4.22735
H         43.80128       89.10519        2.91998
H         45.39997       89.75262        2.44645
N         44.81964       93.47851        3.81594
C         45.55517       94.74611        3.77105
C         47.06290       94.51266        3.86886
O         47.63700       94.86695        4.88974
C         45.11580       95.67663        2.60402
C         45.74115       97.09978        2.71075
C         43.58030       95.77836        2.52434
C         45.36556       97.89322        3.97501
H         44.27342       93.32172        4.67782
H         45.26631       95.26898        4.70830
H         45.45604       95.23455        1.64515
H         45.41455       97.69465        1.82933
H         46.84807       97.02493        2.66776
H         43.13439       94.78448        2.31978
H         43.14426       96.15693        3.47115
H         43.28217       96.45275        1.69461
H         45.74459       97.40245        4.89417
H         45.82594       98.90210        3.93010
H         44.26840       98.03171        4.06085
N         47.76306       93.87420        2.88912
C         49.15351       93.47335        3.03469
C         50.09443       94.66630        3.00420
O         50.82555       94.81254        3.97400
C         49.52562       92.36839        2.01939
C         48.73819       91.09362        2.24367
O         47.81928       90.99800        3.22715
O         48.94796       90.12407        1.53326
H         47.29121       93.59530        2.02837
H         49.27728       92.97622        4.02615
H         50.60028       92.11366        2.14294
H         49.35886       92.70605        0.98023
N         50.17211       95.58987        1.99857
C         49.35583       95.61837        0.78429
C         49.61376       96.87356       -0.05310
O         50.38666       97.71191        0.38957
H         50.86317       96.33895        2.15063
H         48.29401       95.63677        1.08316
H         49.58378       94.72323        0.18635
N         49.03073       97.15351       -1.26156
C         48.12078       96.36397       -2.09147
C         46.80119       96.04930       -1.40773
O         46.76432       95.11539       -0.62195
C         48.78354       95.08484       -2.65172
C         50.09858       95.37245       -3.31944
O         51.22498       94.79223       -2.86201
O         50.15370       96.12469       -4.27900
H         49.28856       98.06408       -1.67685
H         47.89962       96.99369       -2.97967
H         48.10555       94.61768       -3.39596
H         48.94991       94.34218       -1.84893
N         45.63539       96.71150       -1.66715
C         45.44781       97.86984       -2.52587
C         46.05451       99.12246       -1.93960
O         46.75346       99.05117       -0.93830
H         44.79103       96.37532       -1.19148
H         44.35391       98.06535       -2.58193
H         45.80029       97.67657       -3.56087
N         45.75177      100.33385       -2.49117
C         46.24082      101.60169       -1.95461
C         45.14364      102.37998       -1.23187
O         45.47801      103.36963       -0.59390
C         47.02417      102.38343       -3.03736
C         46.24018      102.78766       -4.30136
C         45.28055      103.91954       -4.07095
N         45.74095      105.14034       -3.71068
O         44.08609      103.74931       -4.25153
H         45.10473      100.35207       -3.29278
H         46.98228      101.39140       -1.15213
H         47.84352      101.70931       -3.36997
H         47.50688      103.27868       -2.58883
H         45.72118      101.90632       -4.72936
H         46.96218      103.13763       -5.06988
H         46.74913      105.30871       -3.58549
H         45.09671      105.93094       -3.58249
N         43.84606      101.93953       -1.18468
C         42.84976      102.47317       -0.25221
C         41.63859      103.11229       -0.92002
O         40.79527      103.60403       -0.18315
C         42.38413      101.35264        0.73002
C         43.55306      100.82399        1.57410
C         41.68741      100.18197        0.01394
H         43.56853      101.13419       -1.75957
H         43.30086      103.28127        0.36600
H         41.64869      101.79514        1.43879
H         44.01444      101.65479        2.14881
H         43.18760      100.06592        2.30049
H         44.32890      100.35187        0.93483
H         41.31608       99.45242        0.76384
H         40.81752      100.53892       -0.57647
H         42.38171       99.64475       -0.66318
N         41.48002      103.18473       -2.27450
C         40.33979      103.86817       -2.88758
C         39.56142      102.98634       -3.85332
O         38.62296      103.50700       -4.44576
C         40.83328      105.12020       -3.64470
C         41.59673      106.08020       -2.76710
N         41.03116      106.63623       -1.67108
O         42.74346      106.37232       -3.06181
H         42.20347      102.79701       -2.89307
H         39.61701      104.21103       -2.11667
H         39.96016      105.66706       -4.06412
H         41.48049      104.80535       -4.49189
H         40.06277      106.41500       -1.40131
H         41.56942      107.29426       -1.08752
N         39.85557      101.67127       -4.08656
C         39.16907      100.91435       -5.13667
C         39.40850       99.41979       -5.03963
O         40.52442       99.00888       -4.75777
C         39.56184      101.45988       -6.53730
C         41.05098      101.41101       -6.82138
C         41.69790      100.19892       -7.12242
C         41.80762      102.59588       -6.80047
C         43.07241      100.17095       -7.37626
C         43.18229      102.56572       -7.05218
C         43.82038      101.35554       -7.33753
O         45.14724      101.34404       -7.57665
H         40.58917      101.20653       -3.53028
H         38.07231      101.05715       -5.01040
H         39.22742      102.51578       -6.58879
H         39.00888      100.93193       -7.34379
H         41.14150       99.27318       -7.17241
H         41.33638      103.54423       -6.57800
H         43.55356       99.22827       -7.60510
H         43.75265      103.48552       -7.02356
H         45.62690      100.52802       -7.77845
N         38.39291       98.55815       -5.36370
C         38.45259       97.09625       -5.39376
C         38.33341       96.48243       -4.00528
O         37.44280       95.66529       -3.81061
C         39.64883       96.56685       -6.21464
C         39.50884       95.06239       -6.50743
C         40.63369       94.56278       -7.36681
O         40.80956       95.02634       -8.48273
O         41.43965       93.58130       -6.91946
H         37.50392       98.97398       -5.68313
H         37.54478       96.76175       -5.94906
H         40.60849       96.75322       -5.68927
H         39.66292       97.10533       -7.18820
H         38.55295       94.87342       -7.04425
H         39.49487       94.49236       -5.55390
N         39.15878       96.83974       -2.98096
C         39.06560       96.27449       -1.63783
C         37.72428       96.55493       -0.95803
O         37.51030       96.01052        0.11691
C         40.17272       96.84819       -0.71794
C         41.62267       96.71551       -1.21059
C         42.08408       95.30321       -1.38348
O         41.62133       94.59617       -2.26360
O         43.08721       94.84955       -0.61306
H         39.88564       97.53088       -3.15919
H         39.18823       95.17329       -1.72452
H         40.10665       96.36571        0.28225
H         39.97456       97.93401       -0.58680
H         42.26961       97.19930       -0.44838
H         41.79180       97.26308       -2.15989
N         36.78864       97.39807       -1.48974
C         35.51788       97.68118       -0.85282
H         34.69253       97.37712       -1.52995
H         35.39395       97.14595        0.11172
H         35.44063       98.77153       -0.65940
H         36.96617       97.88624       -2.37709
Ca        44.25113       93.01301       -1.14822
O         46.01943       93.00956       -3.44070
H         46.84669       92.46701       -3.40412
H         45.82681       93.10813       -4.40613
O         47.07766       91.77997       -0.73837
H         48.02206       91.59825       -0.97087
H         46.92355       91.26385        0.09108
O         42.36254       91.54944       -2.88538
H         41.89433       91.90175       -2.08714
H         41.99344       90.63923       -3.00452

Ca 1.0



