%chk=apoCaM-CA-Ng.loop3.water3.frame886.chk
%nprocshared=20
%mem=10GB
%nosave
#b3lyp/svp scf=(tight,noincore,xqc) Test 
#IOP(5/87=12) Density=Current Pop=(MK,readradii) iop(6/33=2) iop(6/42=6)

apoCaM-CA-Ng.loop3.water3.frame886 

   0  1 
C         24.44960        1.64517       -6.48364
C         25.28033        1.82784       -7.71819
O         24.74669        1.77365       -8.81693
H         23.38329        1.47810       -6.74512
H         24.82384        0.78022       -5.89903
H         24.51853        2.56296       -5.85998
N         26.60841        2.09919       -7.60176
C         27.45240        2.42113       -8.75067
C         27.67281        1.18069       -9.63330
O         27.40887        0.08242       -9.16225
C         28.77847        3.02889       -8.20705
C         29.61006        3.85658       -9.14860
O         30.71450        4.46564       -8.67784
O         29.28216        4.04177      -10.30427
H         27.00022        2.16617       -6.64836
H         26.91895        3.21104       -9.30003
H         29.39537        2.22331       -7.75176
H         28.51588        3.74447       -7.39886
N         28.18501        1.26845      -10.90140
C         28.58462        0.09960      -11.69137
C         30.10045        0.03273      -11.85038
O         30.58356       -1.01578      -12.25658
C         27.95543        0.08538      -13.10500
C         26.44350       -0.17099      -13.14478
C         25.98876       -0.33669      -14.60969
C         24.51978       -0.76342      -14.72281
N         24.14999       -0.98874      -16.12239
H         28.34917        2.19386      -11.30846
H         28.30349       -0.83508      -11.15951
H         28.42543       -0.75188      -13.66858
H         28.20019        1.03004      -13.63949
H         25.88803        0.65583      -12.65162
H         26.23802       -1.11959      -12.60286
H         26.60430       -1.13024      -15.08923
H         26.14926        0.61414      -15.16468
H         23.86352        0.01929      -14.28411
H         24.36996       -1.71016      -14.15727
H         23.15278       -1.29937      -16.17065
H         24.25874       -0.10682      -16.67373
H         24.75114       -1.73758      -16.53898
N         30.91261        1.09838      -11.59373
C         32.36415        1.05632      -11.72836
C         33.08221        1.49411      -10.45129
O         34.29356        1.35173      -10.41623
C         32.80373        1.88438      -12.96369
C         32.12528        3.22587      -13.06184
O         31.43537        3.48969      -14.03334
O         32.21807        4.11421      -12.06391
H         30.49774        2.00043      -11.33630
H         32.70928        0.01476      -11.91102
H         32.52354        1.31306      -13.87613
H         33.90895        2.00102      -12.97338
N         32.43529        1.96816       -9.34553
C         33.13641        2.35123       -8.12497
C         33.95758        3.63901       -8.21103
O         34.66214        3.91140       -7.24993
H         31.41083        1.99275       -9.32709
H         33.79374        1.50687       -7.82355
H         32.39698        2.49769       -7.30720
N         33.89788        4.49929       -9.27423
C         34.67509        5.73992       -9.36722
C         33.78534        6.97037       -9.42010
O         32.96072        7.08371      -10.31605
C         35.55210        5.80783      -10.64293
C         36.65646        4.79173      -10.69805
N         36.37692        3.49479      -10.91933
O         37.81909        5.15089      -10.58784
H         33.25991        4.28070      -10.03938
H         35.36080        5.83864       -8.49775
H         36.03483        6.81203      -10.65045
H         34.93189        5.73209      -11.56452
H         35.40546        3.21993      -11.08173
H         37.12578        2.78931      -10.97587
N         34.01979        8.00572       -8.56575
C         33.45156        9.32928       -8.74596
C         31.95859        9.37772       -8.58870
O         31.46354        9.06477       -7.51483
H         34.73121        7.89780       -7.82716
H         33.75073        9.70811       -9.74778
H         33.89104       10.01776       -7.99207
N         31.17945        9.83904       -9.61051
C         29.74486       10.06079       -9.46330
C         28.99909        8.76610       -9.19963
O         29.59610        7.70041       -9.24416
C         29.15327       10.75942      -10.71474
C         29.87300       12.03906      -11.08002
C         29.98828       13.09449      -10.15852
C         30.43539       12.18598      -12.36062
C         30.66605       14.26708      -10.50840
C         31.10370       13.36228      -12.71070
C         31.22608       14.40428      -11.78691
O         31.88194       15.52879      -12.13814
H         31.63693       10.10715      -10.49523
H         29.59841       10.72987       -8.58743
H         28.08651       11.00929      -10.53376
H         29.19178       10.05302      -11.57204
H         29.56227       13.01031       -9.16742
H         30.35439       11.39196      -13.09277
H         30.75536       15.06790       -9.78526
H         31.52878       13.46231      -13.70166
H         31.99559       16.27092      -11.52746
N         27.66864        8.81058       -8.89803
C         26.81858        7.65815       -8.61737
C         26.70790        6.79147       -9.86548
O         27.69338        6.19649      -10.27055
C         27.30386        6.86931       -7.36087
C         26.33783        5.72541       -6.95175
C         27.56451        7.81642       -6.17230
C         24.94962        6.17539       -6.48279
H         27.21483        9.73519       -8.84704
H         25.81472        8.07345       -8.38546
H         28.27620        6.38831       -7.60053
H         26.80339        5.15244       -6.11983
H         26.21097        5.02904       -7.80544
H         27.92326        7.24142       -5.29249
H         28.35354        8.55576       -6.42441
H         26.65078        8.38015       -5.89352
H         24.35328        5.28235       -6.20171
H         25.02068        6.82399       -5.58542
H         24.40427        6.71125       -7.28461
N         25.54380        6.73486      -10.57100
C         25.43193        5.99935      -11.83605
C         24.22729        6.35121      -12.70618
O         24.15399        5.79447      -13.79430
C         25.45089        4.48177      -11.58513
O         24.34698        4.08300      -10.81659
H         24.76809        7.28940      -10.20175
H         26.30873        6.26617      -12.46391
H         26.39753        4.17672      -11.10897
H         25.42546        3.92783      -12.54780
H         24.54550        4.33418       -9.87726
N         23.25877        7.24901      -12.35482
C         22.14579        7.55702      -13.24117
C         22.64113        8.23088      -14.51971
O         23.73142        8.78639      -14.49666
C         21.15995        8.46851      -12.51605
H         23.27485        7.72491      -11.44915
H         21.64188        6.59480      -13.47477
H         20.80093        7.97959      -11.58571
H         21.64730        9.43183      -12.25124
H         20.29119        8.66282      -13.15355
N         21.96454        8.18591      -15.70651
C         20.71106        7.47886      -15.93404
C         19.84326        8.23946      -16.93219
O         20.31831        8.45896      -18.03865
C         21.02915        6.09782      -16.52093
H         22.44200        8.58296      -16.53196
H         20.18104        7.30212      -14.98570
H         21.65716        5.51628      -15.81300
H         20.09014        5.53190      -16.70200
H         21.58285        6.18993      -17.48090
N         18.55475        8.63565      -16.69640
C         17.82716        8.46711      -15.44169
C         18.22769        9.49527      -14.38905
O         17.73353        9.39692      -13.27317
C         16.28406        8.50124      -15.63826
C         15.64901        9.84392      -16.06444
C         15.89501       10.20585      -17.49913
O         16.52110       11.35622      -17.81083
O         15.51663        9.46299      -18.39170
H         18.06217        9.03956      -17.50021
H         18.02730        7.44287      -15.06118
H         15.83809        8.24710      -14.65057
H         15.97217        7.69772      -16.34037
H         15.99356       10.65780      -15.39143
H         14.54774        9.75538      -15.94653
N         19.08986       10.51946      -14.65488
C         19.42837       11.51202      -13.65499
H         20.14306       12.24978      -14.07682
H         18.51249       12.04871      -13.32859
H         19.89764       11.03248      -12.77222
H         19.51357       10.62053      -15.58734
Ca        30.89984        5.94164      -12.01094
O         28.65163        7.63956      -12.85029
H         28.44355        7.30689      -13.75920
H         27.86260        8.17906      -12.59341
O         32.25306        8.17750      -13.39442
H         31.90617        8.86634      -12.77365
H         31.45099        7.85281      -13.87628
O         28.54619        4.27564      -13.14085
H         27.73650        4.50832      -13.65904
H         28.85740        3.42506      -13.53876

Ca 1.0



