%chk=apoCaM-CA-Ng.loop1.water3.frame1120.chk
%nprocshared=20
%mem=10GB
%nosave
#b3lyp/svp scf=(tight,noincore,xqc) Test 
#IOP(5/87=12) Density=Current Pop=(MK,readradii) iop(6/33=2) iop(6/42=6)

apoCaM-CA-Ng.loop1.water3.frame1120 

   0  1 
C         70.48494       53.95371       57.67479
C         70.32624       54.20964       56.20549
O         70.69661       55.28746       55.76371
H         71.55162       54.08399       57.95396
H         69.86927       54.67756       58.24996
H         70.17082       52.92457       57.94558
N         69.77236       53.26604       55.38642
C         69.62290       53.43929       53.94065
C         68.28092       54.06047       53.56730
O         67.55712       53.52804       52.73687
C         69.94366       52.12088       53.19634
C         69.02686       50.96001       53.51261
O         67.98626       51.08813       54.36022
O         69.23223       49.87867       52.98601
H         69.47641       52.37713       55.81298
H         70.37603       54.17087       53.59755
H         70.98202       51.82192       53.45625
H         69.90554       52.30646       52.10059
N         67.90988       55.23453       54.14398
C         66.69923       55.97420       53.81445
C         66.83284       56.59708       52.42808
O         65.96764       56.31983       51.60951
C         66.36115       57.00845       54.91824
C         66.20961       56.29598       56.27975
C         66.01802       57.27486       57.44045
C         66.10512       56.56821       58.80760
N         65.03729       55.58786       59.00961
H         68.52437       55.62713       54.86250
H         65.83424       55.27053       53.81814
H         65.40984       57.52853       54.66797
H         67.14748       57.78012       55.00234
H         67.13056       55.72334       56.50614
H         65.36213       55.57979       56.22384
H         65.05496       57.81832       57.33459
H         66.84597       58.01699       57.41074
H         66.04439       57.33922       59.60586
H         67.09383       56.06302       58.90225
H         64.10436       56.05258       58.93113
H         65.11021       54.80701       58.31964
H         65.13394       55.17870       59.96701
N         67.88489       57.37969       52.01740
C         69.05549       57.76644       52.81226
C         70.27588       56.95966       52.43810
O         70.23891       56.20481       51.48005
C         69.32834       59.28389       52.73859
C         69.16836       59.90531       51.37056
O         69.86994       59.54868       50.26713
O         68.32996       60.78421       51.25265
H         67.88731       57.65741       51.02303
H         68.91483       57.52276       53.87091
H         70.32805       59.52395       53.15908
H         68.57880       59.77838       53.39644
N         71.37279       56.99029       53.25328
C         72.52090       56.12360       53.05557
C         73.48772       56.67593       52.05165
O         73.35732       57.81942       51.64448
H         71.33651       57.55224       54.11749
H         72.17775       55.11802       52.73868
H         73.07302       56.00086       54.01162
N         74.49372       55.88269       51.59311
C         75.47633       56.31170       50.59902
C         76.87956       56.06590       51.13433
O         76.99344       55.46036       52.19239
C         75.17202       55.55380       49.28502
C         73.76464       55.89690       48.88299
O         73.43851       57.20058       48.75225
O         72.90800       55.03048       48.83590
H         74.52931       54.90409       51.92216
H         75.37591       57.40198       50.41258
H         75.27238       54.45603       49.44666
H         75.84510       55.84465       48.46389
N         78.02381       56.49996       50.53013
C         78.14659       57.29751       49.31994
C         77.58662       58.69308       49.47438
O         77.89430       59.34959       50.45904
H         78.91360       56.25444       50.99286
H         77.75065       56.77279       48.43206
H         79.23302       57.42960       49.12646
N         76.84409       59.25240       48.47612
C         76.42440       60.65209       48.49186
C         75.19778       60.85983       49.36532
O         74.28278       60.05043       49.34251
C         76.25811       61.20513       47.05736
C         75.89042       62.69686       47.04859
O         75.29551       60.47064       46.34854
H         76.68577       58.69820       47.62036
H         77.26201       61.26320       48.90087
H         77.25802       61.10282       46.56642
H         75.63968       60.36058       45.42287
H         75.86040       63.07526       46.00588
H         74.89448       62.86513       47.50932
H         76.64561       63.28684       47.61224
N         75.13779       61.96546       50.15950
C         74.09432       62.29532       51.12157
C         72.71932       62.52161       50.49933
O         72.02739       61.56711       50.17796
C         74.05216       61.26153       52.28651
C         75.44444       61.06047       52.94531
C         72.99295       61.62352       53.34582
C         76.07919       62.33283       53.51982
H         75.92316       62.63284       50.10845
H         74.38689       63.26809       51.57047
H         73.75276       60.27853       51.87180
H         76.14831       60.63914       52.19668
H         75.34903       60.31042       53.76025
H         72.97799       60.85281       54.14623
H         73.19203       62.61539       53.79869
H         71.97746       61.64457       52.89772
H         76.28807       63.07183       52.71918
H         75.43047       62.79714       54.28917
H         77.05027       62.07755       53.99200
N         72.23749       63.79473       50.40391
C         70.83660       64.13765       50.15934
C         70.60058       64.75321       48.78279
O         69.53364       65.32447       48.58017
C         70.34878       65.07457       51.31200
C         71.01464       66.46327       51.32273
O         70.58306       64.46634       52.55730
H         72.88636       64.56944       50.59558
H         70.19868       63.22762       50.20489
H         69.25580       65.26359       51.19315
H         69.85610       63.80743       52.70406
H         70.59016       67.07431       52.14837
H         72.10864       66.40417       51.49093
H         70.82691       67.00134       50.37047
N         71.50212       64.62575       47.76754
C         71.33836       65.23990       46.44860
C         71.15374       64.19562       45.35536
O         71.99044       63.31312       45.20917
C         72.55270       66.14100       46.12961
C         72.57928       67.37660       47.02915
O         73.76020       65.43797       46.29030
H         72.35393       64.06532       47.92932
H         70.43628       65.89230       46.42674
H         72.46495       66.52298       45.08505
H         73.91411       64.91785       45.46068
H         72.66374       67.09151       48.09877
H         73.44582       68.01546       46.75655
H         71.65122       67.97128       46.88423
N         70.06657       64.26183       44.52833
C         69.77370       63.33445       43.43886
C         69.65008       61.92029       43.97776
O         70.40127       61.04109       43.57960
C         70.79519       63.39945       42.27953
C         70.94104       64.77364       41.60584
C         71.76048       64.60129       40.31335
C         72.06696       65.92420       39.60393
N         72.77460       65.67395       38.34533
H         69.37604       65.01431       44.68407
H         68.78921       63.61294       42.99827
H         70.42565       62.68514       41.50900
H         71.79813       63.05923       42.61477
H         71.44204       65.47578       42.30747
H         69.94309       65.18537       41.33678
H         71.18237       63.95010       39.61937
H         72.72505       64.10027       40.54642
H         72.70098       66.55357       40.26681
H         71.12413       66.47324       39.38806
H         72.15647       65.14371       37.68795
H         73.03237       66.58487       37.90239
H         73.64752       65.12385       38.51920
N         68.69724       61.64401       44.90658
C         68.53127       60.33102       45.51825
C         68.76877       60.42059       47.01723
O         69.71138       59.77648       47.45435
C         67.17883       59.69537       45.13760
C         67.17630       59.25211       43.66609
C         65.83422       58.71270       43.26833
O         65.70578       57.42902       42.88273
O         64.85456       59.44114       43.27827
H         68.07737       62.41305       45.18841
H         69.30748       59.62695       45.13937
H         66.34171       60.39357       45.31186
H         67.00971       58.78788       45.75827
H         67.94698       58.45920       43.53363
H         67.42812       60.10044       42.99533
N         68.03961       61.15424       47.90912
C         66.87624       61.97702       47.66120
H         66.02867       61.58477       48.26171
H         67.09194       63.01511       47.98842
H         66.55687       62.01387       46.61629
H         68.34324       61.12670       48.88786
Ca        71.54721       58.16477       49.58913
O         71.41273       57.84342       45.95481
H         71.04034       57.35255       45.18003
H         72.39035       57.85451       45.80036
O         72.42622       60.55552       47.04798
H         72.98047       61.37037       47.12965
H         71.99264       60.64024       46.16228
O         69.96965       55.83911       48.40173
H         70.55163       55.63105       49.17155
H         70.60499       56.08046       47.68375

Ca 1.0



