%chk=apoCaM-CA-Ng.loop2.water3.frame33.chk
%nprocshared=20
%mem=10GB
%nosave
#b3lyp/svp scf=(tight,noincore,xqc) Test 
#IOP(5/87=12) Density=Current Pop=(MK,readradii) iop(6/33=2) iop(6/42=6)

apoCaM-CA-Ng.loop2.water3.frame33 

   -2  1 
C         64.36918       47.63081       32.48236
C         64.71046       46.32955       33.14957
O         65.87225       46.09005       33.44451
H         63.64744       48.19595       33.10882
H         65.27736       48.25246       32.33170
H         63.90729       47.43073       31.49187
N         63.72379       45.43248       33.42099
C         63.96087       44.13143       34.04078
C         64.83562       43.26007       33.15235
O         65.75865       42.63885       33.65728
C         62.61974       43.43121       34.32706
C         62.82145       42.14429       35.08026
O         63.42871       42.15375       36.28330
O         62.43350       41.08788       34.60892
H         62.75591       45.69402       33.17332
H         64.45972       44.28739       35.02457
H         62.07712       43.24239       33.37469
H         61.99313       44.09717       34.95989
N         64.62596       43.21704       31.80419
C         65.45734       42.48423       30.85330
C         66.92738       42.85848       30.99863
O         67.78247       41.98281       31.02128
C         65.21239       40.97398       30.96994
H         63.86889       43.79549       31.40898
H         65.13850       42.79110       29.83248
H         65.50771       40.59857       31.97212
H         64.13449       40.75741       30.81161
H         65.79292       40.42796       30.19573
N         67.27644       44.16682       31.16303
C         68.63731       44.65457       31.35786
C         69.34596       43.87212       32.46260
O         70.43552       43.35697       32.24856
C         69.37618       44.63870       30.00349
C         70.67799       45.38154       30.05905
O         71.72174       44.82097       29.76771
O         70.69089       46.68347       30.40172
H         66.52329       44.86912       31.20196
H         68.55412       45.71693       31.68033
H         68.74281       45.15366       29.24919
H         69.53226       43.59127       29.66301
N         68.72149       43.67135       33.65591
C         69.25958       42.80436       34.68739
C         70.39018       43.45455       35.42775
O         71.49723       42.93443       35.41301
H         67.78140       44.06429       33.79790
H         69.56277       41.83170       34.23845
H         68.46853       42.58735       35.43750
N         70.15029       44.57596       36.16249
C         71.14913       45.21144       37.01052
C         70.75154       45.07226       38.47201
O         69.69864       44.52219       38.77169
C         71.34725       46.68232       36.59095
C         71.98747       46.76877       35.22600
N         73.22215       47.30718       35.08138
O         71.39698       46.33896       34.24617
H         69.19558       44.97055       36.16263
H         72.13048       44.69456       36.92286
H         72.01751       47.18361       37.31856
H         70.37964       47.23074       36.59780
H         73.74400       47.66668       35.89410
H         73.66933       47.35365       34.15510
N         71.60128       45.50510       39.44356
C         71.39538       45.30439       40.86783
C         71.27537       46.63128       41.56452
O         72.11427       47.49647       41.34817
H         72.47855       45.96964       39.16364
H         72.27794       44.76043       41.26408
H         70.49757       44.68216       41.07682
N         70.25180       46.86500       42.43259
C         70.02240       48.17152       43.03403
C         69.61975       49.12821       41.92736
O         70.28291       50.13347       41.71739
C         68.95057       48.08478       44.16114
C         68.67263       49.45307       44.79380
O         67.74608       47.54190       43.68292
H         69.60296       46.09275       42.65213
H         70.96071       48.52398       43.52098
H         69.36918       47.41027       44.94539
H         67.28192       47.12749       44.45645
H         69.60823       49.88807       45.20310
H         68.24339       50.15240       44.04444
H         67.94072       49.34221       45.62171
N         68.52706       48.84080       41.16884
C         68.03649       49.67541       40.08020
C         69.02172       49.72230       38.92500
O         70.04595       49.05205       38.95756
C         66.63355       49.17354       39.59544
C         66.70067       47.74095       38.98549
C         65.61654       49.28955       40.74849
C         65.35474       47.22142       38.48286
H         68.01269       47.98435       41.39694
H         67.90911       50.71236       40.46454
H         66.26702       49.85758       38.80098
H         67.08724       47.00174       39.71506
H         67.39651       47.75423       38.11880
H         65.60373       50.33171       41.13418
H         64.58949       49.06645       40.39826
H         65.85899       48.60668       41.58766
H         64.92435       47.91564       37.73176
H         65.49897       46.22578       38.01234
H         64.64330       47.09003       39.32393
N         68.73763       50.49832       37.84520
C         69.56718       50.58516       36.65668
C         70.02562       52.03640       36.43973
O         70.64216       52.31754       35.42365
C         68.72059       50.01118       35.49806
C         69.47177       49.63290       34.25320
O         68.85830       49.13296       33.32356
O         70.80869       49.74706       34.16605
H         67.86406       51.04762       37.84427
H         70.46864       49.94196       36.76307
H         67.89074       50.70132       35.25875
H         68.26521       49.05845       35.84896
N         69.79609       53.00069       37.39085
C         70.22895       54.39258       37.28753
C         69.45592       55.12092       36.19104
O         68.24403       55.22925       36.32106
C         69.94318       55.11633       38.63031
C         70.36234       56.56669       38.62106
C         71.72041       56.92128       38.67001
C         69.38847       57.57984       38.57057
C         72.09507       58.26972       38.67603
C         69.76768       58.92421       38.55969
C         71.11972       59.26967       38.61682
H         69.32999       52.73371       38.26817
H         71.32552       54.40898       37.11906
H         70.44436       54.60166       39.47947
H         68.84880       55.04937       38.82307
H         72.48508       56.15633       38.72018
H         68.33570       57.32965       38.52520
H         73.14147       58.54085       38.72765
H         69.01196       59.69754       38.50882
H         71.41036       60.31225       38.61625
N         70.06420       55.68443       35.10270
C         69.36049       56.49578       34.11750
C         68.30144       55.69486       33.38445
O         67.18151       56.17391       33.26867
C         70.48925       57.05776       33.24226
C         71.56983       56.00448       33.33397
C         71.47866       55.57995       34.79946
H         68.85590       57.37206       34.58514
H         70.19111       57.38158       32.22233
H         70.90609       57.94456       33.77305
H         71.26631       55.15723       32.68807
H         72.58250       56.32169       33.00758
H         71.87535       54.54629       34.88038
H         72.03308       56.26676       35.47587
N         68.55638       54.44067       32.93171
C         67.55368       53.58903       32.30165
C         66.38372       53.38507       33.24690
O         65.25183       53.61422       32.84403
C         68.18608       52.23504       31.92253
C         69.25903       52.40866       30.83146
C         69.97429       51.12401       30.54705
O         71.30899       51.05887       30.71095
O         69.36301       50.14381       30.15304
H         69.48909       54.04635       33.10449
H         67.17875       54.06028       31.36477
H         67.40247       51.54542       31.53682
H         68.63490       51.78635       32.83209
H         70.02049       53.15223       31.14491
H         68.78253       52.77949       29.89869
N         66.59539       53.00324       34.53728
C         65.53259       52.82004       35.50569
H         64.52519       52.97720       35.06579
H         65.57964       51.78962       35.91499
H         65.66679       53.54251       36.33829
H         67.56249       52.86962       34.86387
Ca        71.78086       48.78444       32.37193
O         74.30083       50.16755       32.90897
H         74.64087       49.36468       32.43924
H         74.23023       49.88921       33.85661
O         73.79611       46.66407       31.58200
H         73.32420       45.79642       31.64352
H         74.68018       46.44182       31.19709
O         72.69799       48.77213       29.41145
H         72.10138       48.28056       28.79327
H         73.26596       49.32598       28.81992

Ca 1.0



