%chk=apoCaM-CA-Ng.loop4.water3.frame411.chk
%nprocshared=20
%mem=10GB
%nosave
#b3lyp/svp scf=(tight,noincore,xqc) Test 
#IOP(5/87=12) Density=Current Pop=(MK,readradii) iop(6/33=2) iop(6/42=6)

apoCaM-CA-Ng.loop4.water3.frame411 

   -3  1 
C         98.18957       69.47470       90.57299
C         98.92016       68.17136       90.24748
O         98.08876       67.48944       89.35502
H         97.22629       69.24999       91.08316
H         98.80919       70.12490       91.22144
H         97.96483       70.01921       89.63140
N         99.16506       67.37741       91.47427
C        100.38376       66.52176       91.46795
C        101.41873       66.78103       90.36184
O        101.58956       65.96914       89.47006
C        100.12575       65.05203       91.91730
C         99.02183       64.21301       91.30704
O         98.97930       63.90117       90.00192
O         98.17383       63.73212       92.04342
H         99.27187       68.03984       92.28112
H        101.00120       66.82762       92.34874
H         99.88043       65.09475       93.00445
H        101.07857       64.48947       91.83465
N        102.23290       67.87559       90.47626
C        103.34027       68.28012       89.60444
C        104.42412       67.20730       89.48984
O        105.42781       67.32786       90.17871
C        102.86815       68.84587       88.23479
C        104.04241       69.39494       87.37427
C        101.78945       69.92777       88.42099
C        104.83373       70.55195       88.00013
H        102.07858       68.48543       91.29495
H        103.80863       69.13734       90.13751
H        102.39316       68.02855       87.66038
H        103.63061       69.75095       86.40792
H        104.75485       68.57371       87.14658
H        101.45706       70.31476       87.43423
H        100.90080       69.50296       88.92623
H        102.16133       70.77303       89.03506
H        105.62121       70.88354       87.29130
H        104.18091       71.42315       88.20934
H        105.33890       70.23752       88.93568
N        104.32532       66.17177       88.60141
C        105.32055       65.11235       88.47519
C        106.17019       65.21216       87.19488
O        107.38095       65.19967       87.37551
C        104.67416       63.73317       88.68221
C        104.08589       63.60860       90.06284
O        102.90037       63.36170       90.20675
O        104.86937       63.75408       91.14938
H        103.50128       66.11473       87.99650
H        106.06261       65.19690       89.30331
H        105.45152       62.94487       88.57592
H        103.87995       63.55996       87.93540
N        105.74674       65.35147       85.89484
C        104.39972       65.51335       85.37159
C        103.62634       64.21483       85.23683
O        104.14841       63.17191       85.60110
H        106.49345       65.45329       85.18788
H        104.49767       65.89143       84.33079
H        103.87971       66.30953       85.92335
N        102.38598       64.16096       84.65445
C        101.67669       65.31988       84.10330
C        101.38067       66.35076       85.18040
O        101.38950       65.99270       86.34959
C        100.38546       64.87951       83.36740
C         99.40585       64.16408       84.25878
O         99.09347       63.00899       84.01838
O         98.84802       64.79712       85.30807
H        101.94790       63.23109       84.56322
H        102.35289       65.78150       83.35135
H        100.68052       64.20583       82.53283
H         99.85885       65.74423       82.91874
N        101.20874       67.67579       84.90924
C        101.19568       68.28271       83.58843
C        102.50562       68.94833       83.28137
O        103.45608       68.80111       84.03698
H        101.13869       68.32040       85.70944
H        100.37378       69.02841       83.55919
H        101.01146       67.55966       82.77733
N        102.61961       69.70729       82.15708
C        103.85420       70.37802       81.77356
C        103.78121       71.87993       82.02224
O        104.81337       72.52430       81.89052
C        104.29369       69.95541       80.34988
C        103.26939       70.17073       79.22181
C        102.91764       71.61101       79.01171
N        103.86485       72.50933       78.66538
O        101.75927       71.96936       79.13842
H        101.77909       69.84656       81.57653
H        104.67879       70.04864       82.44414
H        104.50197       68.86319       80.37669
H        105.25023       70.46100       80.09629
H        102.35170       69.58115       79.43047
H        103.69524       69.78058       78.27262
H        104.84699       72.22676       78.54207
H        103.61181       73.49118       78.51167
N        102.64745       72.48734       82.49672
C        102.64421       73.84013       83.05684
C        101.74377       74.82316       82.31413
O        101.71105       75.97586       82.72175
C        102.26035       73.77695       84.56853
C        103.20475       72.84300       85.34475
C        100.79988       73.34504       84.80232
H        101.77579       71.94702       82.56954
H        103.66827       74.27266       83.00413
H        102.37697       74.79830       84.99468
H        102.95679       72.85961       86.42740
H        103.11202       71.79510       84.98664
H        104.25940       73.16875       85.22444
H        100.09937       74.03986       84.29349
H        100.60938       72.31484       84.43833
H        100.56774       73.37118       85.88812
N        101.01617       74.47167       81.21448
C        100.19275       75.42023       80.46634
C         98.75072       74.95614       80.29381
O         98.02303       75.67070       79.61534
C        100.81706       75.65496       79.06917
C        102.14950       76.36320       79.13308
N        102.25173       77.60357       79.66546
O        103.14279       75.82968       78.66856
H        101.08011       73.51226       80.85769
H        100.13922       76.40324       80.98042
H        100.15251       76.30745       78.46228
H        100.91378       74.68110       78.53885
H        101.42645       78.08982       80.04334
H        103.16173       78.08744       79.68767
N         98.23367       73.81987       80.85628
C         96.86890       73.38521       80.54588
C         96.33066       72.32308       81.48826
O         97.00804       71.34062       81.73700
C         96.74895       72.93915       79.05867
C         97.76672       71.91546       78.57489
C         98.72393       72.30535       77.61864
C         97.77178       70.57915       79.02054
C         99.66742       71.39440       77.13716
C         98.72685       69.67242       78.54789
C         99.67744       70.07543       77.60716
O        100.58939       69.18898       77.15911
H         98.80821       73.25476       81.49964
H         96.18671       74.25534       80.66961
H         96.86876       73.85369       78.44335
H         95.72045       72.57584       78.84934
H         98.74392       73.31979       77.24090
H         97.03794       70.21564       79.71900
H        100.39440       71.71806       76.40311
H         98.72289       68.65109       78.90875
H        101.26544       69.43029       76.50970
N         95.03897       72.43534       81.94464
C         94.27491       71.43482       82.69394
C         94.62033       71.38026       84.17129
O         93.70422       71.50344       84.97536
C         94.26557       70.04842       82.00911
C         93.80317       70.10232       80.53456
C         92.37359       70.54180       80.31386
O         91.95368       70.64455       79.17258
O         91.53972       70.79766       81.34065
H         94.49717       73.25968       81.64285
H         93.22028       71.77879       82.68813
H         93.59629       69.35977       82.57084
H         95.28430       69.61169       82.04128
H         93.90664       69.08766       80.09520
H         94.47472       70.78202       79.97164
N         95.89808       71.25121       84.62522
C         96.23137       71.25962       86.04571
C         95.82104       72.56633       86.72488
O         95.88087       72.62476       87.94570
C         97.75003       71.05040       86.26567
C         98.36301       69.80423       85.60050
C         97.79876       68.50375       86.08667
O         96.62575       68.22305       85.90308
O         98.61071       67.60801       86.67149
H         96.65506       71.15975       83.95165
H         95.66874       70.43188       86.52875
H         97.96187       71.00899       87.35612
H         98.28385       71.93280       85.84894
H         99.44859       69.82830       85.82133
H         98.25822       69.83836       84.49886
N         95.39984       73.65576       86.01553
C         94.95819       74.87235       86.65733
H         94.07589       74.65910       87.29762
H         95.77713       75.29978       87.27151
H         94.66060       75.61586       85.88647
H         95.38593       73.64510       84.98689
Ca        99.09644       65.62058       88.65243
O        100.88021       63.17828       87.55607
H        100.97746       62.80419       88.46691
H        101.38024       62.54979       86.97813
O         96.07115       65.33234       88.07290
H         96.17194       65.94878       87.30520
H         95.80681       65.91652       88.82724
O         97.62834       62.63649       87.57826
H         98.10874       62.40209       86.74530
H         98.05166       62.07287       88.27345

Ca 1.0



