%chk=apoCaM-CA-Ng.loop1.water3.frame1426.chk
%nprocshared=20
%mem=10GB
%nosave
#b3lyp/svp scf=(tight,noincore,xqc) Test 
#IOP(5/87=12) Density=Current Pop=(MK,readradii) iop(6/33=2) iop(6/42=6)

apoCaM-CA-Ng.loop1.water3.frame1426 

   0  1 
C         72.35892       94.03959      122.81706
C         73.62731       94.64143      122.29391
O         73.74663       94.78178      121.08466
H         71.49658       94.66542      122.50762
H         72.23810       93.01925      122.39399
H         72.37122       93.96334      123.92386
N         74.63632       94.99358      123.14421
C         75.91471       95.51661      122.67587
C         76.99523       94.48811      122.91060
O         78.01198       94.76591      123.53305
C         76.21055       96.91628      123.26035
C         76.35650       96.99223      124.76120
O         76.58473       98.07239      125.28108
O         76.25462       95.89848      125.54111
H         74.50855       94.83285      124.15347
H         75.88271       95.64056      121.58113
H         75.38720       97.59732      122.95465
H         77.15168       97.29494      122.80344
N         76.81608       93.24404      122.39258
C         77.79442       92.17581      122.50063
C         79.07445       92.56981      121.78218
O         80.10773       92.54482      122.43506
C         77.21682       90.81868      122.02983
C         75.99393       90.44149      122.89330
C         75.42033       89.06400      122.55885
C         74.17163       88.80147      123.41775
N         73.60794       87.48081      123.14948
H         75.93603       93.05797      121.88975
H         78.03791       92.02510      123.57799
H         77.99994       90.03957      122.16014
H         76.92730       90.83706      120.95984
H         75.18823       91.19080      122.74964
H         76.28784       90.44729      123.96651
H         76.18896       88.28646      122.76113
H         75.13981       89.02500      121.48391
H         73.40393       89.57759      123.19670
H         74.43507       88.87227      124.49706
H         72.74958       87.35386      123.73352
H         73.34675       87.39834      122.14040
H         74.30121       86.73953      123.40100
N         79.14049       93.02359      120.49331
C         78.03354       93.19509      119.54870
C         77.74539       94.67796      119.34841
O         78.48850       95.50496      119.85973
C         78.33184       92.39624      118.25622
C         79.75776       92.58008      117.77540
O         80.17627       93.73576      117.22857
O         80.55573       91.66588      117.90899
H         80.07126       93.33468      120.17285
H         77.09260       92.79640      119.96095
H         77.58719       92.59913      117.45562
H         78.22387       91.32405      118.53242
N         76.58534       95.08517      118.75020
C         76.09648       96.45288      118.89004
C         76.53612       97.39876      117.81002
O         77.12622       96.99049      116.82504
H         75.91793       94.36408      118.43401
H         76.41410       96.86975      119.86655
H         74.98354       96.44898      118.89247
N         76.26122       98.72405      117.96803
C         76.50663       99.75566      116.96260
C         75.22089      100.57172      116.77564
O         74.30830      100.39977      117.57248
C         77.66087      100.65398      117.45563
C         78.93735       99.87429      117.60575
O         79.53397       99.78023      118.80946
O         79.44525       99.33358      116.63569
H         75.85175       99.02184      118.86823
H         76.78636       99.28449      115.99822
H         77.38533      101.10326      118.43534
H         77.86535      101.47935      116.75365
N         75.01735      101.48796      115.78274
C         75.88984      101.77799      114.66061
C         75.99109      100.59754      113.72956
O         74.96379      100.08379      113.31200
H         74.12550      102.00862      115.80140
H         76.87680      102.15157      114.98807
H         75.42580      102.59991      114.07300
N         77.20404      100.15574      113.30474
C         77.36387       99.04962      112.36443
C         77.06818       97.72816      113.06132
O         77.64949       97.46371      114.10314
C         78.78383       99.06031      111.75250
C         79.01634      100.34768      110.93941
O         78.92156       97.95409      110.89715
H         78.04306      100.66307      113.62692
H         76.67007       99.18691      111.50393
H         79.53018       98.99821      112.57566
H         79.89133       97.85213      110.71079
H         80.03246      100.34004      110.49299
H         78.27307      100.42418      110.11573
H         78.93019      101.25369      111.57414
N         76.19046       96.83633      112.51123
C         75.80084       95.56129      113.11571
C         77.06837       94.70470      113.40326
O         76.97163       94.06606      114.62749
C         74.85691       95.76581      114.35658
C         73.74401       96.80838      114.08372
C         74.18182       94.44413      114.82963
C         72.80007       96.46448      112.92618
H         75.77312       97.06667      111.59695
H         75.16551       95.02552      112.37780
H         75.45530       96.17101      115.19524
H         74.21166       97.78697      113.87208
H         73.13936       96.93459      115.00837
H         73.59992       93.97628      114.01045
H         74.86417       93.66133      115.19784
H         73.50391       94.64935      115.68354
H         72.04427       97.26938      112.82376
H         73.35319       96.39072      111.96805
H         72.25859       95.51522      113.11051
N         77.33455       93.73797      112.32410
C         78.42669       92.78109      112.60530
C         79.29682       92.57416      111.38017
O         80.25076       91.82638      111.49460
C         77.93782       91.39231      113.15282
C         77.05618       90.59521      112.18240
O         77.24906       91.53229      114.36583
H         76.46747       93.24766      112.01471
H         79.11516       93.21636      113.36736
H         78.83643       90.75266      113.32999
H         77.93480       91.59986      115.08181
H         76.81761       89.60738      112.63259
H         76.09382       91.10523      111.98075
H         77.58504       90.41702      111.22322
N         79.05872       93.21542      110.18707
C         79.96470       93.06729      109.04735
C         81.33895       93.56049      109.46670
O         81.53999       94.75362      109.62679
C         79.44074       93.81030      107.79115
C         78.15385       93.17175      107.25926
O         79.18580       95.16244      108.08406
H         78.24447       93.83306      110.09540
H         80.02659       91.98527      108.79618
H         80.19437       93.71914      106.97224
H         79.96953       95.68933      107.78077
H         77.34194       93.20582      108.01556
H         77.81098       93.71535      106.35341
H         78.33885       92.11210      106.98122
N         82.28259       92.63644      109.82463
C         83.54293       92.91985      110.49958
C         83.33313       93.63514      111.83009
O         82.25733       94.18405      112.06306
C         84.54779       93.66184      109.59806
C         84.73410       92.92875      108.26008
C         85.86097       93.54350      107.42512
C         85.96355       92.84455      106.06170
N         87.09566       93.35652      105.29143
H         82.05481       91.63912      109.69848
H         83.98951       91.92680      110.74212
H         85.52111       93.71260      110.13375
H         84.20434       94.70006      109.39827
H         83.78000       92.97546      107.68987
H         84.98393       91.86148      108.44972
H         86.81843       93.42414      107.97859
H         85.67196       94.62729      107.26449
H         85.02140       93.01408      105.49303
H         86.09180       91.74864      106.20633
H         87.11304       92.88697      104.35724
H         87.00449       94.38884      105.15238
H         87.98956       93.14381      105.79145
N         84.29554       93.63143      112.78775
C         84.13968       94.31259      114.07161
C         82.84029       93.90455      114.77593
O         82.04961       94.79622      115.04059
C         85.36677       94.13385      114.99157
C         86.64798       94.74110      114.39844
C         87.80092       94.57818      115.34724
O         88.43499       95.66271      115.83178
O         88.17444       93.46342      115.67740
H         85.16566       93.10518      112.59670
H         84.06023       95.40680      113.86996
H         85.54945       93.06613      115.20280
H         85.15876       94.65180      115.95470
H         86.48447       95.82303      114.20274
H         86.91395       94.24764      113.44120
N         82.48437       92.62205      115.08192
C         83.26792       91.43938      114.81653
H         84.19754       91.44167      115.41136
H         82.69206       90.54193      115.12880
H         83.48360       91.34720      113.73383
H         81.56059       92.47259      115.51378
Ca        78.64493       94.72312      115.97287
O         80.72006       96.83853      113.42910
H         80.39827       96.12271      112.82589
H         81.40570       97.32051      112.90134
O         80.66683       96.65163      118.20322
H         81.28625       97.40280      118.38104
H         79.76660       97.06156      118.23519
O         82.41295       97.89132      115.78233
H         82.74452       98.81149      115.93512
H         83.05813       97.49788      115.14266

Ca 1.0



