%chk=apoCaM-CA-Ng.loop2.water3.frame720.chk
%nprocshared=20
%mem=10GB
%nosave
#b3lyp/svp scf=(tight,noincore,xqc) Test 
#IOP(5/87=12) Density=Current Pop=(MK,readradii) iop(6/33=2) iop(6/42=6)

apoCaM-CA-Ng.loop2.water3.frame720 

   -2  1 
C         69.09956      110.64851       -3.68054
C         69.92005      111.90254       -3.71649
O         69.38927      112.95219       -4.05143
H         68.04984      110.85673       -3.97974
H         69.52993      109.90157       -4.37941
H         69.10021      110.23118       -2.65161
N         71.23559      111.86386       -3.36544
C         72.09786      113.03647       -3.35770
C         72.54518      113.31830       -1.94254
O         73.21454      112.48511       -1.34436
C         73.31061      112.80866       -4.28058
C         74.27176      113.96841       -4.23630
O         75.42479      113.79457       -3.87386
O         73.86206      115.20483       -4.57815
H         71.64070      110.96063       -3.07180
H         71.55064      113.92629       -3.73888
H         72.95645      112.67432       -5.32500
H         73.84428      111.88125       -3.97413
N         72.22782      114.50761       -1.35542
C         72.70517      114.88103       -0.03135
C         72.18520      113.92972        1.04071
O         71.23379      113.20916        0.77563
C         72.28241      116.32502        0.28149
H         71.66856      115.18884       -1.89197
H         73.81416      114.81633       -0.07648
H         72.64643      116.67384        1.26700
H         72.69073      117.00697       -0.49483
H         71.17455      116.40581        0.27869
N         72.78696      113.79224        2.26042
C         73.98409      114.50980        2.68452
C         75.20465      113.62531        2.57994
O         75.07604      112.42938        2.34579
C         73.79702      115.12889        4.09017
C         73.55781      114.14887        5.21757
O         73.53279      112.94315        5.02906
O         73.37219      114.61998        6.46502
H         72.41376      113.06750        2.88703
H         74.19756      115.34295        1.99622
H         72.93124      115.82374        4.04965
H         74.69911      115.72340        4.34801
N         76.44164      114.18508        2.66475
C         77.67403      113.43940        2.50099
C         78.47760      113.94501        1.31205
O         78.02542      114.85072        0.62259
H         76.51930      115.20198        2.82691
H         77.47224      112.35792        2.37067
H         78.27007      113.57291        3.42687
N         79.71129      113.44195        1.01230
C         80.32809      112.35955        1.77689
C         79.63111      111.03022        1.50180
O         78.77975      110.96857        0.62536
C         81.85013      112.26940        1.51740
C         82.23232      111.76386        0.14583
N         82.93377      110.61239        0.01697
O         81.92376      112.39757       -0.85182
H         80.23769      113.88354        0.24289
H         80.23600      112.61668        2.85258
H         82.28236      111.58824        2.28054
H         82.31147      113.26758        1.68464
H         83.20596      110.06240        0.84547
H         83.20700      110.26477       -0.91358
N         79.96429      109.91535        2.21306
C         79.37327      108.60591        1.96909
C         78.72826      107.98332        3.19754
O         78.30077      106.84224        3.08997
H         80.69529      109.98743        2.93555
H         80.19446      107.93072        1.64379
H         78.62335      108.63600        1.15042
N         78.66222      108.62148        4.40371
C         78.20844      107.95265        5.62466
C         76.73036      107.58408        5.59482
O         75.88359      108.45108        5.43996
C         78.51890      108.80598        6.87340
C         78.09457      108.07125        8.15806
O         79.90209      109.04710        6.91417
H         79.02854      109.58136        4.48284
H         78.81693      107.02751        5.73925
H         77.97450      109.77290        6.79853
H         80.05803      109.72025        7.62619
H         76.99620      107.90758        8.17909
H         78.60317      107.08495        8.22302
H         78.36052      108.67280        9.05035
N         76.37032      106.28711        5.80489
C         74.99417      105.80311        5.88310
C         74.33794      106.23575        7.19991
O         74.84107      105.88211        8.25715
C         74.98209      104.24336        5.74804
C         73.54288      103.67597        5.89374
C         75.60123      103.82961        4.39187
C         73.45686      102.15463        5.74357
H         77.13027      105.60002        5.91948
H         74.42456      106.19713        5.01575
H         75.60893      103.80966        6.56043
H         72.86961      104.14302        5.14419
H         73.15927      103.92302        6.90696
H         74.97924      104.20114        3.55028
H         76.62900      104.22403        4.26438
H         75.70066      102.72863        4.31737
H         73.71358      101.83935        4.71152
H         74.13441      101.65103        6.46528
H         72.41553      101.82265        5.93611
N         73.16838      106.94347        7.19488
C         72.39544      107.30423        8.38181
C         70.99690      106.68742        8.38185
O         70.31800      106.85383        9.38721
C         72.16982      108.82768        8.39844
C         73.43038      109.62278        8.46090
O         73.84305      110.30525        7.37726
O         74.07699      109.67279        9.49455
H         72.78816      107.23804        6.29676
H         72.92015      106.96928        9.30384
H         71.52376      109.13910        9.25013
H         71.62665      109.09638        7.46546
N         70.45856      106.02943        7.30715
C         69.05213      105.63426        7.28064
C         68.44628      105.85474        5.89086
O         67.96777      104.89786        5.29467
C         68.90863      104.19027        7.81395
C         67.46321      103.80463        8.05476
C         66.68333      104.52327        8.98214
C         66.88345      102.71989        7.37400
C         65.35153      104.17033        9.21414
C         65.54914      102.36883        7.61198
C         64.78413      103.09428        8.52954
H         71.01221      105.88664        6.45383
H         68.47936      106.29085        7.96720
H         69.43264      104.11015        8.79113
H         69.40717      103.49012        7.10784
H         67.10351      105.35642        9.53071
H         67.46093      102.14590        6.66058
H         64.76047      104.73088        9.92744
H         65.10673      101.53299        7.08587
H         63.75257      102.82187        8.71291
N         68.39458      107.09768        5.30807
C         67.73238      107.38332        4.03577
C         68.29801      106.66903        2.81773
O         67.71006      106.77665        1.75090
C         67.96236      108.88747        3.84064
C         68.02153      109.39509        5.26153
C         68.85548      108.31572        5.94287
H         66.65522      107.13755        4.17006
H         68.98206      109.04276        3.42510
H         67.23545      109.39106        3.16882
H         68.42275      110.42442        5.37919
H         66.98778      109.35592        5.67215
H         69.94006      108.43336        5.72411
H         68.66486      108.36112        7.03457
N         69.48040      106.00003        2.88135
C         70.09898      105.35787        1.73559
C         69.40012      104.04198        1.51011
O         68.89324      103.80765        0.42160
C         71.63145      105.15565        1.91339
C         72.43582      106.48279        1.95980
C         72.42371      107.21598        3.27302
O         72.99588      108.43123        3.36740
O         71.96609      106.69855        4.26818
H         69.95293      105.93842        3.78014
H         69.99129      106.00378        0.83361
H         71.97178      104.63042        0.99329
H         71.88516      104.50292        2.77678
H         72.06675      107.15330        1.15513
H         73.50594      106.26579        1.75338
N         69.29630      103.14695        2.53021
C         68.59118      101.89467        2.39028
H         67.53886      102.08575        2.08871
H         69.09142      101.26253        1.62793
H         68.58682      101.35676        3.36215
H         69.70391      103.37601        3.45009
Ca        73.23037      109.62479        5.29462
O         75.07781      109.37574        1.82876
H         74.23187      109.42732        1.31533
H         75.38808      108.44398        1.70222
O         71.35098      110.80230        3.06966
H         71.00863      109.88835        2.91931
H         70.60703      111.39016        2.78805
O         76.07873      111.68991        5.79275
H         76.13863      112.64322        6.05211
H         76.10212      111.20321        6.65362

Ca 1.0



