%chk=apoCaM-CA-Ng.loop3.water2.frame718.chk
%nprocshared=20
%mem=10GB
%nosave
#b3lyp/svp scf=(tight,noincore,xqc) Test 
#IOP(5/87=12) Density=Current Pop=(MK,readradii) iop(6/33=2) iop(6/42=6)

apoCaM-CA-Ng.loop3.water2.frame718 

   0  1 
C         75.74763       86.70481      -11.50050
C         76.27729       85.53902      -12.27757
O         76.57193       85.67823      -13.45586
H         74.74015       86.46029      -11.10380
H         76.43015       86.91609      -10.64948
H         75.67940       87.60995      -12.13885
N         76.44296       84.34414      -11.65331
C         77.00382       83.17043      -12.30685
C         76.10152       82.71351      -13.44052
O         74.95022       82.37936      -13.19655
C         77.20989       82.07824      -11.24937
C         77.98494       80.88916      -11.70369
O         78.21707       80.01200      -10.88734
O         78.41201       80.72858      -12.97121
H         76.19339       84.28817      -10.65258
H         78.00351       83.44471      -12.70096
H         76.22631       81.74379      -10.85313
H         77.78639       82.51399      -10.40862
N         76.56065       82.72608      -14.72292
C         75.72199       82.41817      -15.87809
C         75.17150       80.99894      -15.86593
O         74.08011       80.80423      -16.38300
C         76.45652       82.74557      -17.20061
C         77.69637       81.87297      -17.46977
C         78.47534       82.39141      -18.68692
C         79.72407       81.53820      -18.94657
N         80.50810       82.07710      -20.05783
H         77.52892       83.04107      -14.88247
H         74.85182       83.11280      -15.84043
H         76.76895       83.81266      -17.14608
H         75.75292       82.64588      -18.05712
H         77.37961       80.82114      -17.63863
H         78.38025       81.89919      -16.59674
H         78.79358       83.43895      -18.48772
H         77.82471       82.38245      -19.58884
H         79.41678       80.49445      -19.17971
H         80.35893       81.52339      -18.03362
H         79.93326       82.09912      -20.93096
H         80.83831       83.04297      -19.82812
H         81.34239       81.46668      -20.21521
N         75.88056       79.95557      -15.34125
C         75.39992       78.57249      -15.34849
C         75.32464       77.95360      -13.94517
O         74.93951       76.79730      -13.84049
C         76.24269       77.75981      -16.35400
C         77.71144       77.69431      -16.04381
O         78.52035       78.21834      -16.79290
O         78.15050       77.00415      -14.98042
H         76.82018       80.13921      -14.96105
H         74.36105       78.52888      -15.74418
H         76.11758       78.25154      -17.34501
H         75.84632       76.72609      -16.44507
N         75.60106       78.67778      -12.81983
C         75.42092       78.19559      -11.45300
C         76.41163       77.15068      -10.95955
O         76.34870       76.84249       -9.77787
H         75.85992       79.66729      -12.91641
H         74.38110       77.82619      -11.31747
H         75.54676       79.06954      -10.77643
N         77.34461       76.56415      -11.76269
C         78.34581       75.60464      -11.28536
C         79.75341       76.13737      -11.66341
O         79.79174       77.45281      -11.22444
C         78.02594       74.22654      -11.88964
C         76.66564       73.76370      -11.41878
N         75.65200       73.57223      -12.29412
O         76.47569       73.57255      -10.22617
H         77.35564       76.79636      -12.75853
H         78.31009       75.51549      -10.17620
H         78.76419       73.46276      -11.57415
H         78.05281       74.30244      -12.99855
H         75.78334       73.73761      -13.30204
H         74.72543       73.26840      -11.95873
N         80.87055       75.38150      -11.05925
C         82.15559       75.78002      -11.66847
C         82.69389       77.10079      -11.14834
O         82.16161       77.65246      -10.19493
H         80.74318       74.37499      -11.30448
H         82.02834       75.84274      -12.77189
H         82.92760       75.00376      -11.47401
N         83.75631       77.68553      -11.77512
C         84.26075       79.02212      -11.44167
C         83.17566       80.08616      -11.66214
O         82.05664       79.73650      -12.00095
C         85.50390       79.35430      -12.30971
C         86.69057       78.45179      -12.05878
C         87.28628       78.38788      -10.78539
C         87.24473       77.70181      -13.10933
C         88.41416       77.58886      -10.57035
C         88.37409       76.90592      -12.89240
C         88.96410       76.84754      -11.62573
O         90.05960       76.08385      -11.43747
H         84.19468       77.17247      -12.55609
H         84.55803       79.05199      -10.37113
H         85.86753       80.37801      -12.09424
H         85.20687       79.32879      -13.38133
H         86.88813       78.96445       -9.96016
H         86.81237       77.74255      -14.10094
H         88.86501       77.55386       -9.58613
H         88.79665       76.34055      -13.71337
H         90.50621       76.02502      -10.58071
N         83.45351       81.41427      -11.47996
C         82.50319       82.52320      -11.59998
C         81.82524       82.59467      -12.96678
O         81.09755       81.68036      -13.32268
C         81.43130       82.48953      -10.46820
C         80.46459       83.70878      -10.52963
C         82.08153       82.39298       -9.07762
C         81.11848       85.08931      -10.39508
H         84.40955       81.68003      -11.20656
H         83.09179       83.45312      -11.44801
H         80.80769       81.57698      -10.59359
H         79.71156       83.60969       -9.71987
H         79.91942       83.69076      -11.49264
H         81.29562       82.35710       -8.29277
H         82.68145       81.46330       -8.99108
H         82.74856       83.25714       -8.88176
H         81.63934       85.19540       -9.42279
H         81.83232       85.28488      -11.21906
H         80.33130       85.87062      -10.45055
N         81.92820       83.71586      -13.73645
C         81.12740       83.92388      -14.93983
C         81.96982       84.20040      -16.17670
O         81.38265       84.42970      -17.22551
C         80.15895       85.08636      -14.66414
O         79.26617       85.24632      -15.73331
H         82.52167       84.49434      -13.41039
H         80.50599       83.02802      -15.16186
H         80.72885       86.02741      -14.49942
H         79.58519       84.84325      -13.74210
H         78.53977       85.83697      -15.40522
N         83.33733       84.19322      -16.15737
C         84.12417       84.49677      -17.35238
C         83.85439       83.49471      -18.47021
O         83.27482       82.45304      -18.19381
C         85.61965       84.48866      -17.00641
H         83.83308       83.99241      -15.27721
H         83.81908       85.51216      -17.68662
H         85.83315       85.25111      -16.22754
H         85.91740       83.49000      -16.62172
H         86.24685       84.70409      -17.89020
N         84.20179       83.71292      -19.77417
C         84.82167       84.92307      -20.31012
C         86.11541       84.58098      -21.03666
O         86.19936       83.49087      -21.58535
C         83.84310       85.56746      -21.30015
H         83.95819       82.97437      -20.45423
H         85.01578       85.67026      -19.52420
H         82.89825       85.83249      -20.77891
H         84.26724       86.49387      -21.73971
H         83.60322       84.86594      -22.12866
N         87.14194       85.46873      -21.20280
C         87.19278       86.81439      -20.64180
C         87.54867       86.75598      -19.16859
O         86.78748       87.25557      -18.35208
C         88.22905       87.66557      -21.40954
C         88.23524       89.13045      -20.94577
C         89.22530       89.93389      -21.73705
O         90.53478       89.62114      -21.69759
O         88.85056       90.87906      -22.41243
H         87.92584       85.16952      -21.80524
H         86.21396       87.31601      -20.79770
H         87.96155       87.64648      -22.48956
H         89.24571       87.22869      -21.30075
H         88.50784       89.19734      -19.87123
H         87.21648       89.55823      -21.07841
N         88.71551       86.17266      -18.76705
C         89.14991       86.10349      -17.38643
H         90.12740       86.62144      -17.28502
H         88.42842       86.57785      -16.68934
H         89.27850       85.04053      -17.09340
H         89.33934       85.75598      -19.47416
Ca        79.35617       78.71629      -13.04978
O         81.60053       80.29272      -15.90060
H         81.83807       79.69546      -16.65360
H         82.46228       80.68934      -15.61662
O         81.78645       77.43173      -14.90562
H         82.76153       77.31105      -14.78213
H         81.49728       76.62737      -15.40531

Ca 1.0



