%chk=apoCaM-CA-Ng.loop3.water2.frame957.chk
%nprocshared=20
%mem=10GB
%nosave
#b3lyp/svp scf=(tight,noincore,xqc) Test 
#IOP(5/87=12) Density=Current Pop=(MK,readradii) iop(6/33=2) iop(6/42=6)

apoCaM-CA-Ng.loop3.water2.frame957 

   0  1 
C         70.84043      114.39323       26.05110
C         71.38963      115.68836       25.53562
O         70.63307      116.50453       25.02794
H         69.74384      114.33404       25.88611
H         71.33576      113.54219       25.54129
H         71.03557      114.32780       27.14376
N         72.71350      115.96292       25.68393
C         73.28627      117.25434       25.33954
C         73.27688      117.49414       23.83403
O         73.95089      116.77723       23.10710
C         74.71715      117.35599       25.91232
C         75.25535      118.75308       25.91917
O         76.49176      118.98293       26.39753
O         74.57730      119.68577       25.52430
H         73.30673      115.25706       26.14819
H         72.67253      118.02290       25.85323
H         75.39953      116.68153       25.35170
H         74.71351      117.03095       26.97149
N         72.51739      118.49416       23.30174
C         72.46556      118.79391       21.86701
C         73.77793      119.34993       21.32061
O         73.92293      119.41023       20.10750
C         71.30459      119.77419       21.56760
C         71.49979      121.16679       22.20772
C         70.20269      121.98358       22.17475
C         70.36986      123.29834       22.95111
N         69.09536      124.00426       23.07135
H         71.91544      119.02070       23.94955
H         72.23811      117.83842       21.34321
H         70.38233      119.30580       21.97647
H         71.16176      119.89568       20.47077
H         72.32376      121.71362       21.69821
H         71.77888      121.05613       23.27348
H         69.40507      121.38991       22.67015
H         69.88930      122.18540       21.12748
H         71.11680      123.94471       22.43953
H         70.74229      123.07675       23.97605
H         69.24367      124.88554       23.61429
H         68.71881      124.24019       22.12544
H         68.40753      123.40847       23.58870
N         74.74419      119.83449       22.15340
C         76.00079      120.42514       21.70507
C         77.22799      119.71502       22.26686
O         78.31034      120.01672       21.79601
C         76.01745      121.93834       22.04550
C         75.59422      122.26212       23.46848
O         74.59378      122.93353       23.65048
O         76.28557      121.80447       24.53270
H         74.56003      119.83838       23.15933
H         76.09304      120.33105       20.59947
H         75.29017      122.43296       21.36425
H         77.01807      122.37097       21.82467
N         77.15997      118.74243       23.21801
C         78.32226      118.02130       23.72264
C         79.30916      118.81100       24.58534
O         80.26281      118.18139       25.02159
H         76.24289      118.43645       23.55819
H         78.86216      117.56544       22.86465
H         77.95470      117.18763       24.36147
N         79.17253      120.13670       24.90744
C         80.11183      120.84736       25.79221
C         79.40915      121.39718       27.02828
O         78.19504      121.39923       27.07733
C         80.76911      122.06053       25.07988
C         81.61412      121.71538       23.88211
N         81.04471      121.28683       22.73852
O         82.82434      121.87446       23.92945
H         78.37457      120.65989       24.53285
H         80.91086      120.15872       26.14079
H         81.43221      122.57087       25.81095
H         79.99225      122.79683       24.77123
H         80.02729      121.22020       22.67921
H         81.61286      121.06986       21.90678
N         80.13185      121.93708       28.05244
C         79.56147      122.73537       29.13259
C         78.46135      122.06522       29.92639
O         78.70161      121.03197       30.53433
H         81.16001      121.85905       28.02332
H         79.16772      123.67263       28.68737
H         80.37435      123.02318       29.83415
N         77.21736      122.63660       29.96988
C         76.09615      122.10311       30.73414
C         75.02106      121.54164       29.77379
O         75.61101      120.70409       28.82330
C         75.43781      123.21107       31.59847
C         76.28335      123.77659       32.71166
C         76.59766      125.14674       32.73780
C         76.70492      122.95746       33.77226
C         77.31806      125.68744       33.80734
C         77.42449      123.50109       34.84217
C         77.73057      124.86612       34.86607
O         78.41087      125.37747       35.91228
H         77.04831      123.48572       29.41242
H         76.43782      121.26378       31.37929
H         74.52429      122.81255       32.08992
H         75.10485      124.02658       30.91962
H         76.27194      125.80245       31.93987
H         76.45783      121.90349       33.78279
H         77.54409      126.74657       33.81780
H         77.73297      122.86299       35.66080
H         78.62923      126.31857       35.97450
N         73.96639      120.84985       30.55941
C         73.02811      119.90862       29.91151
C         72.39454      120.54269       28.69172
O         73.09993      120.82213       27.73405
C         73.65899      118.50863       29.58573
C         72.62685      117.52002       28.97192
C         74.34085      117.86443       30.80914
C         71.45728      117.12670       29.87670
H         74.31902      120.45042       31.45830
H         72.22882      119.72829       30.66071
H         74.44527      118.63673       28.81706
H         73.15467      116.58485       28.68443
H         72.20484      117.96035       28.04880
H         75.19718      118.47432       31.16087
H         73.62694      117.73935       31.64960
H         74.75526      116.87008       30.53744
H         70.84823      118.00877       30.15570
H         70.80054      116.42002       29.32608
H         71.81463      116.61319       30.79205
N         71.05177      120.77339       28.64013
C         70.42446      121.34761       27.46115
C         69.29706      122.28522       27.85643
O         68.18129      122.13839       27.37610
C         70.01469      120.21008       26.51448
O         69.52647      120.72930       25.30978
H         70.45460      120.48789       29.43132
H         71.16263      121.97663       26.92321
H         69.24451      119.56920       26.99557
H         70.92311      119.59751       26.31124
H         69.56330      119.98361       24.65538
N         69.54383      123.29497       28.74006
C         68.56174      124.30602       29.12695
C         69.11437      125.69687       28.80925
O         70.29529      125.79013       28.50112
C         68.25855      124.13611       30.61947
H         70.48573      123.35545       29.15864
H         67.62501      124.16302       28.54552
H         67.82431      123.12671       30.79189
H         69.18839      124.22768       31.21804
H         67.54201      124.88598       30.99460
N         68.35772      126.83624       28.76726
C         66.91721      126.92556       28.98251
C         66.56002      128.15918       29.81281
O         67.32962      129.11004       29.80945
C         66.24911      127.06915       27.61137
H         68.83657      127.69341       28.44673
H         66.52171      126.00558       29.43963
H         66.62425      127.97740       27.09107
H         66.48525      126.18203       26.98615
H         65.14692      127.14835       27.69968
N         65.36385      128.30008       30.45798
C         64.40306      127.22328       30.65855
C         64.95255      126.27896       31.70533
O         65.06052      125.09125       31.43687
C         63.02207      127.76186       31.09078
C         62.39276      128.62558       29.98378
C         60.97255      128.98531       30.31292
O         60.06598      128.63122       29.57515
O         60.68949      129.70134       31.41720
H         65.15716      129.21639       30.88796
H         64.22209      126.67513       29.71041
H         63.08839      128.34063       32.03860
H         62.35778      126.88515       31.26235
H         62.40014      128.05668       29.02735
H         62.98177      129.55611       29.83950
N         65.35198      126.75863       32.91866
C         65.95197      125.93647       33.94952
H         66.97508      126.31317       34.16403
H         65.34560      126.00265       34.87623
H         66.03164      124.87090       33.64956
H         65.25782      127.76626       33.11768
Ca        75.66604      121.81540       26.76302
O         75.00140      124.34092       28.20169
H         75.28233      125.11650       27.65535
H         74.03468      124.47596       28.36335
O         73.06236      123.59068       25.93766
H         72.77461      122.80912       25.40232
H         72.23449      124.11399       26.07897

Ca 1.0



