%chk=apoCaM-CA-Ng.loop2.water3.frame431.chk
%nprocshared=20
%mem=10GB
%nosave
#b3lyp/svp scf=(tight,noincore,xqc) Test 
#IOP(5/87=12) Density=Current Pop=(MK,readradii) iop(6/33=2) iop(6/42=6)

apoCaM-CA-Ng.loop2.water3.frame431 

   -2  1 
C        104.43001       79.75692       62.52563
C        105.61395       79.36965       61.68991
O        106.55688       78.80061       62.21946
H        103.51917       79.25534       62.13622
H        104.57792       79.45364       63.58465
H        104.28813       80.85708       62.48642
N        105.62265       79.63358       60.35333
C        106.73893       79.27517       59.48433
C        107.96292       80.09251       59.86470
O        107.90031       81.31349       59.80640
C        106.35812       79.51682       58.00782
C        107.37891       79.00268       57.02407
O        107.17282       79.12920       55.82810
O        108.50153       78.38076       57.43624
H        104.78895       80.08250       59.94217
H        106.92925       78.18448       59.60267
H        106.19362       80.60352       57.83737
H        105.40458       78.98500       57.79729
N        109.10527       79.48184       60.29114
C        110.27715       80.22337       60.75104
C        109.89576       81.10542       61.92522
O        110.20565       82.28699       61.89574
C        111.40754       79.26594       61.13660
H        109.12860       78.45063       60.32023
H        110.66689       80.85804       59.92227
H        111.09948       78.58991       61.96065
H        111.69333       78.65391       60.25325
H        112.30145       79.84545       61.45443
N        109.13284       80.60263       62.94447
C        108.53992       81.39280       64.02491
C        109.55066       81.86579       65.06722
O        109.13651       82.52359       66.01274
C        107.68178       82.54932       63.43836
C        106.94094       83.34701       64.51090
O        106.25233       84.42062       63.93580
O        106.00006       82.55119       65.17361
H        108.87411       79.60598       62.90418
H        107.84296       80.72246       64.57687
H        106.94398       82.13545       62.71497
H        108.32422       83.27241       62.90030
N        110.87289       81.53281       65.01791
C        111.82442       81.96504       66.03159
C        111.59237       81.38224       67.42108
O        112.34712       81.74896       68.31029
H        111.23919       80.97540       64.23447
H        111.79557       83.07574       66.09243
H        112.84739       81.66939       65.71607
N        110.58925       80.49475       67.70109
C        110.32688       79.96863       69.03716
C        110.31694       78.45101       69.01882
O        109.64461       77.86644       68.17997
C        108.95959       80.47608       69.53500
C        108.69623       80.02463       70.95707
N        107.64702       79.22333       71.24902
O        109.44772       80.38177       71.85242
H        109.95370       80.18812       66.95291
H        111.08414       80.33359       69.76657
H        108.15802       80.11601       68.85307
H        108.94783       81.58738       69.51926
H        107.01158       78.90419       70.50909
H        107.47515       78.91136       72.21639
N        110.94195       77.75530       70.00815
C        110.83066       76.31509       70.16406
C        109.88539       76.03792       71.30603
O        110.12582       76.53722       72.39679
H        111.42277       78.27879       70.75624
H        111.83775       75.89249       70.36768
H        110.44610       75.83166       69.24095
N        108.77011       75.26712       71.12094
C        107.76744       75.06143       72.16551
C        106.36724       75.51442       71.73086
O        105.49067       75.51979       72.58399
C        107.77351       73.58753       72.65660
C        107.24018       72.57246       71.63583
O        109.06190       73.22229       73.08790
H        108.63507       74.80707       70.20897
H        108.03275       75.68096       73.05022
H        107.10169       73.51544       73.54012
H        109.62778       73.08595       72.28277
H        107.28801       71.54919       72.06466
H        106.17795       72.78573       71.42022
H        107.82621       72.59340       70.69395
N        106.06989       75.89302       70.44506
C        104.74213       76.33074       70.00618
C        104.84726       77.72693       69.42878
O        105.60303       77.93832       68.48892
C        104.14438       75.35980       68.94905
C        103.99908       73.91449       69.48455
C        102.78936       75.87280       68.41617
C        103.07282       73.75212       70.69875
H        106.80270       75.86958       69.72351
H        104.03938       76.36206       70.86425
H        104.84047       75.31415       68.08149
H        105.00333       73.53581       69.74468
H        103.61304       73.26817       68.66745
H        102.05261       75.99735       69.23642
H        102.90665       76.85608       67.91405
H        102.38140       75.16749       67.66232
H        103.03928       72.68322       70.99430
H        103.43656       74.32498       71.57318
H        102.03817       74.07250       70.46189
N        104.10974       78.73494       69.96639
C        104.20903       80.12402       69.53239
C        103.59901       81.00728       70.61465
O        102.78828       81.87489       70.33154
C        103.53193       80.28226       68.14683
C        103.66860       81.64077       67.51648
O        103.12778       81.85069       66.44313
O        104.38083       82.62317       68.10244
H        103.49899       78.50487       70.76614
H        105.28816       80.38963       69.48050
H        102.45000       80.04631       68.25860
H        103.96543       79.55349       67.43093
N        103.92694       80.75555       71.91584
C        103.38745       81.44082       73.08562
C        101.88460       81.68087       72.96960
O        101.14344       80.71546       72.84352
C        103.72699       80.58491       74.33880
C        103.24799       81.12322       75.66997
C        104.18237       81.56882       76.62056
C        101.87930       81.13785       76.00505
C        103.75664       82.03324       77.86844
C        101.45885       81.60082       77.25345
C        102.39620       82.05037       78.18419
H        104.57749       79.97363       72.09134
H        103.92375       82.40230       73.18667
H        104.83509       80.48529       74.36478
H        103.31537       79.55722       74.22128
H        105.24199       81.55546       76.39842
H        101.12893       80.77429       75.32054
H        104.48346       82.37459       78.59323
H        100.40497       81.60178       77.50128
H        102.06840       82.40428       79.15254
N        101.35320       82.94436       73.03846
C         99.92617       83.22302       73.09378
C         99.22867       83.06044       71.75489
O         98.02736       82.82935       71.76050
C         99.87654       84.67131       73.60195
C        101.11608       85.27767       72.98247
C        102.13473       84.16029       73.17922
H         99.41355       82.58737       73.85055
H         98.92445       85.21283       73.41618
H        100.05889       84.65796       74.70158
H        100.92059       85.39741       71.89424
H        101.43407       86.26172       73.38753
H        102.92479       84.26556       72.40374
H        102.57947       84.17526       74.19917
N         99.88842       83.20741       70.56996
C         99.21113       83.09862       69.27905
C         98.68774       81.69279       69.01179
O         97.92617       81.53811       68.06655
C        100.15769       83.48925       68.12409
C        100.61556       84.95360       68.19760
C        101.60356       85.25331       67.10810
O        102.84613       85.66411       67.42458
O        101.28990       85.12673       65.93513
H        100.88924       83.43947       70.59038
H         98.34585       83.80012       69.28462
H         99.63711       83.34426       67.15083
H        101.04182       82.81547       68.15102
H        101.10134       85.16290       69.17248
H         99.73664       85.62645       68.09534
N         99.07077       80.61878       69.76257
C         98.60014       79.26992       69.51977
H         97.86711       79.21673       68.68743
H         99.46440       78.62063       69.26668
H         98.11312       78.88115       70.43794
H         99.74710       80.73747       70.52835
Ca       104.29524       84.04154       65.00899
O        103.62010       87.04315       64.62108
H        104.58221       87.24556       64.73865
H        103.56122       86.62937       63.72334
O        106.01544       85.66470       67.34440
H        105.59476       85.67856       68.24074
H        106.61816       84.87945       67.36574
O        102.25927       83.84131       62.86495
H        103.14500       83.56247       62.52027
H        101.95191       83.07255       63.40839

Ca 1.0



