%chk=apoCaM-CA-Ng.loop2.water4.frame1400.chk
%nprocshared=20
%mem=10GB
%nosave
#b3lyp/svp scf=(tight,noincore,xqc) Test 
#IOP(5/87=12) Density=Current Pop=(MK,readradii) iop(6/33=2) iop(6/42=6)

apoCaM-CA-Ng.loop2.water4.frame1400 

   -2  1 
C         35.02154       78.05693       46.11406
C         35.15737       76.57738       46.32730
O         36.18170       76.02921       45.94656
H         35.92736       78.45910       45.61174
H         34.14422       78.25738       45.46379
H         34.90109       78.57511       47.08740
N         34.18395       75.82246       46.90949
C         32.91611       76.33394       47.42943
C         31.72461       75.82318       46.62181
O         30.83499       76.62308       46.36464
C         32.75643       76.06301       48.95210
C         32.78421       74.61639       49.36944
O         32.53101       74.24547       50.63393
O         33.01732       73.73746       48.56495
H         34.37213       74.81297       46.97808
H         32.87695       77.44116       47.35249
H         31.78120       76.49530       49.26987
H         33.55790       76.59498       49.50812
N         31.63420       74.53494       46.16588
C         30.50298       74.04236       45.38612
C         29.76511       72.88865       46.06375
O         28.75441       72.47194       45.51426
C         31.00964       73.60553       44.00591
H         32.40751       73.87842       46.32776
H         29.75669       74.85166       45.23442
H         31.74351       72.77605       44.10662
H         30.16968       73.26264       43.36516
H         31.50935       74.45787       43.49723
N         30.20085       72.30053       47.22157
C         29.52343       71.16374       47.84861
C         29.23511       71.40831       49.32532
O         29.65666       72.41576       49.87597
C         30.37901       69.89247       47.63994
C         31.75615       69.99053       48.24790
O         32.73954       70.00305       47.52536
O         31.91489       70.03863       49.58545
H         31.07537       72.61806       47.65131
H         28.54559       70.98355       47.35149
H         30.48181       69.74591       46.54158
H         29.86577       68.99661       48.04822
N         28.49028       70.50450       50.02528
C         28.21907       70.60315       51.45330
C         29.40006       70.14433       52.28230
O         30.42967       69.79726       51.72609
H         28.07412       69.70954       49.51736
H         27.39266       69.90192       51.69763
H         27.88661       71.62936       51.72161
N         29.30340       70.06525       53.64131
C         30.39898       69.55263       54.47065
C         30.74398       68.10586       54.11934
O         29.99290       67.46565       53.39477
C         30.09460       69.70360       55.98092
C         28.92415       68.87027       56.46467
N         29.09384       67.93572       57.42912
O         27.80922       69.05168       55.99975
H         28.43136       70.39119       54.08165
H         31.29109       70.17817       54.24723
H         29.88500       70.77277       56.20054
H         31.00555       69.42527       56.55357
H         30.01881       67.76667       57.84953
H         28.29162       67.38063       57.76320
N         31.90493       67.54054       54.56764
C         32.33823       66.19686       54.19177
C         32.56351       66.07189       52.69101
O         32.35906       67.04438       51.97791
H         32.52481       68.09189       55.18005
H         31.57228       65.46238       54.51988
H         33.29083       65.96713       54.71329
N         32.96178       64.91110       52.09238
C         33.27526       63.65775       52.78149
C         34.62982       63.68707       53.50277
O         34.97342       62.68501       54.11339
C         33.26660       62.47152       51.77194
C         31.86808       62.22869       51.17079
O         34.24568       62.64376       50.77101
H         33.00649       64.92693       51.06215
H         32.47816       63.44498       53.52691
H         33.51462       61.53464       52.31660
H         33.84418       63.12784       50.00254
H         31.50778       63.11056       50.60097
H         31.89900       61.35471       50.48567
H         31.13993       62.00962       51.98090
N         35.45548       64.77414       53.46876
C         36.78432       64.82702       54.08080
C         36.78104       65.88390       55.18408
O         36.33792       66.98932       54.90449
C         37.83132       65.16823       52.97764
C         37.88732       64.09144       51.85682
C         39.23263       65.40007       53.56571
C         38.32081       62.68945       52.31198
H         35.15214       65.61957       52.96623
H         37.07665       63.85666       54.50546
H         37.52946       66.12570       52.49692
H         38.60311       64.43163       51.07679
H         36.89025       64.00742       51.37511
H         39.58777       64.49531       54.08995
H         39.95257       65.65980       52.76134
H         39.22855       66.24189       54.28914
H         38.34771       62.01126       51.43372
H         39.33775       62.70109       52.75453
H         37.60784       62.25957       53.04342
N         37.30539       65.69357       56.43979
C         37.98963       64.48323       56.91576
C         38.89222       64.76178       58.13019
O         38.90727       65.87271       58.64364
C         36.97169       63.35294       57.24343
C         36.02405       63.66124       58.37542
O         35.20882       62.81886       58.71570
O         36.05661       64.84278       59.02147
H         37.29077       66.51967       57.05703
H         38.68280       64.13752       56.12503
H         37.52677       62.42837       57.50686
H         36.35338       63.10848       56.36209
N         39.66068       63.76065       58.65380
C         40.44306       63.88229       59.88274
C         41.88618       63.41343       59.67197
O         42.04556       62.31383       59.15638
C         39.79845       62.96141       60.94119
C         40.49569       63.09203       62.27304
C         41.29301       62.04524       62.76401
C         40.37243       64.27423       63.02351
C         41.97015       62.18712       63.97836
C         41.04595       64.40908       64.24075
C         41.84762       63.36794       64.71569
H         39.63185       62.83377       58.20248
H         40.39913       64.91336       60.27950
H         39.85431       61.91257       60.57249
H         38.72153       63.20331       61.07576
H         41.40771       61.12931       62.19788
H         39.76189       65.09262       62.66185
H         42.59478       61.38308       64.34464
H         40.95164       65.32359       64.81175
H         42.37509       63.47669       65.65413
N         42.98937       64.09286       60.13331
C         42.99991       65.36519       60.84450
C         42.50107       66.49893       59.99023
O         41.57758       67.19507       60.38885
C         44.47676       65.57409       61.22357
C         44.95298       64.14700       61.37887
C         44.30998       63.49451       60.15897
H         42.40974       65.26036       61.77374
H         45.05436       65.99172       60.36896
H         44.63660       66.23785       62.10014
H         46.05488       64.02309       61.44236
H         44.48646       63.72383       62.29879
H         44.84980       63.77529       59.22748
H         44.29990       62.39018       60.28840
N         43.07151       66.72429       58.77622
C         42.61246       67.75534       57.86669
C         43.40547       69.02541       58.15217
O         44.60976       68.99201       57.93730
C         42.83928       67.29306       56.40793
C         42.15032       65.94370       56.10571
C         42.47847       65.41331       54.73473
O         42.03186       64.19573       54.37504
O         43.17345       66.04804       53.95649
H         43.84090       66.10925       58.46838
H         41.51923       67.86696       57.97248
H         43.93226       67.16331       56.24169
H         42.46574       68.07007       55.70537
H         41.04885       66.04487       56.21379
H         42.49920       65.17654       56.82809
N         42.87972       70.18134       58.65722
C         41.50642       70.41363       59.05834
H         40.83767       69.54971       58.93248
H         41.49135       70.68444       60.13558
H         41.09373       71.26218       58.47547
H         43.52574       70.97325       58.80273
Ca        32.35356       71.99706       50.62595
O         35.36443       71.73628       49.12571
H         36.04713       72.07605       48.49471
H         34.57445       71.55682       48.55818
O         35.06770       72.93650       51.96529
H         35.98401       72.62778       52.17774
H         34.90094       73.67944       52.59789
O         32.07813       72.73924       53.63562
H         32.26257       73.67525       53.37138
H         32.77201       72.53033       54.31028
O         33.95095       69.99459       52.17298
H         34.34030       70.24783       53.04704
H         34.12055       69.02292       52.09698

Ca 1.0



