%chk=apoCaM-CA-Ng.loop4.water5.frame613.chk
%nprocshared=20
%mem=10GB
%nosave
#b3lyp/svp scf=(tight,noincore,xqc) Test 
#IOP(5/87=12) Density=Current Pop=(MK,readradii) iop(6/33=2) iop(6/42=6)

apoCaM-CA-Ng.loop4.water5.frame613 

   -3  1 
C         88.66535       28.17925       95.89195
C         89.84033       28.19116       96.82251
O         90.92586       27.79850       96.41892
H         88.24768       29.20374       95.80002
H         88.96303       27.82194       94.88298
H         87.88467       27.50074       96.29554
N         89.68934       28.65434       98.09717
C         90.75325       28.69257       99.09764
C         91.94340       29.46936       98.57569
O         93.06660       28.98413       98.65089
C         91.14867       27.26182       99.51934
C         90.01442       26.52337      100.16252
O         88.80817       26.46916       99.56518
O         90.19811       25.92075      101.20824
H         88.76455       29.01531       98.37816
H         90.37240       29.22823       99.99528
H         92.01124       27.27371      100.22292
H         91.46360       26.69240       98.61924
N         91.76359       30.68168       97.98088
C         92.89493       31.42164       97.43578
C         93.69190       32.04666       98.58364
O         93.13654       32.17619       99.66633
C         92.45915       32.45398       96.34835
C         91.60749       33.60849       96.93227
C         91.73569       31.71883       95.19924
C         91.27462       34.68977       95.90237
H         90.80353       31.03419       97.86095
H         93.52842       30.66896       96.91478
H         93.37435       32.90923       95.91688
H         92.18538       34.10111       97.74277
H         90.65990       33.22594       97.36404
H         92.37060       30.89724       94.81164
H         90.77379       31.28013       95.53761
H         91.53374       32.39637       94.34624
H         92.20704       35.10081       95.45980
H         90.62633       34.29357       95.09488
H         90.72345       35.51452       96.39987
N         95.00093       32.42041       98.48785
C         95.83618       32.23850       97.31093
C         96.87221       31.15114       97.52074
O         97.58207       30.86222       96.56968
C         96.46772       33.57661       96.86816
C         97.45458       34.18501       97.83583
O         97.77601       33.58025       98.99607
O         97.98893       35.24453       97.55153
H         95.44475       32.80116       99.33723
H         95.23091       31.88882       96.46364
H         95.64835       34.30557       96.68673
H         96.99894       33.41762       95.90384
N         97.00097       30.46502       98.69892
C         97.94421       29.37001       98.84539
C         99.37622       29.82215       98.68200
O         99.66577       31.00609       98.79487
H         96.39320       30.67676       99.50214
H         97.70572       28.61643       98.06209
H         97.83299       28.87377       99.83329
N        100.32304       28.90656       98.33699
C        101.72171       29.23687       98.05941
C        101.92750       30.20236       96.87713
O        103.07280       30.54493       96.61640
C        102.54488       27.93711       97.85073
C        102.10061       27.04794       96.71249
O        101.12398       27.31732       96.03258
O        102.78086       25.91340       96.46304
H        100.02366       27.92120       98.27102
H        102.14042       29.73453       98.96219
H        102.49079       27.33270       98.78215
H        103.61060       28.20774       97.68965
N        100.89446       30.71326       96.14098
C        101.06973       31.67419       95.06104
C        101.49784       31.03633       93.75610
O        101.63590       31.75436       92.77716
H         99.93137       30.45289       96.35719
H        101.76602       32.48067       95.37882
H        100.08591       32.15080       94.85540
N        101.67354       29.68968       93.65292
C        101.99965       28.96634       92.43243
C        100.87890       29.06177       91.40568
O        101.14668       29.01430       90.21490
C        103.40015       29.34859       91.89643
C        104.50277       29.21427       92.97059
C        104.74692       27.80564       93.46912
N        105.63774       27.59418       94.46425
O        104.15636       26.85225       92.98368
H        101.54072       29.10606       94.48343
H        102.01569       27.89176       92.70567
H        103.38051       30.40617       91.55796
H        103.66049       28.72018       91.01763
H        104.23835       29.85846       93.83678
H        105.45800       29.59518       92.55120
H        106.14584       28.38231       94.89128
H        105.81269       26.64095       94.81567
N         99.58256       29.03896       91.83318
C         98.39929       28.94101       90.96993
C         97.13511       28.42050       91.69796
O         96.17987       28.14018       90.98699
C         98.05363       30.27738       90.22118
C         97.97872       31.47354       91.18062
C         98.98881       30.61127       89.05260
H         99.47040       29.01171       92.84556
H         98.59611       28.13984       90.22354
H         97.05592       30.14581       89.74499
H         98.97488       31.67616       91.62934
H         97.65104       32.38593       90.63629
H         97.25719       31.27611       91.99363
H        100.00436       30.88373       89.39073
H         99.03101       29.75559       88.34443
H         98.59225       31.48776       88.49547
N         97.02024       28.24899       93.05578
C         95.81863       27.72581       93.70557
C         96.16055       26.51496       94.56562
O         97.32552       26.15324       94.66288
C         95.21048       28.84889       94.56614
C         94.79105       30.00750       93.69446
N         95.39151       31.21463       93.80092
O         93.90212       29.84756       92.87149
H         97.76684       28.51447       93.70289
H         95.06397       27.39887       92.95778
H         95.96596       29.17422       95.31350
H         94.31731       28.49548       95.12369
H         96.16723       31.36439       94.45858
H         95.09976       31.99921       93.19987
N         95.17234       25.83931       95.22526
C         95.42057       24.70945       96.11894
C         94.72923       23.45530       95.59442
O         93.72917       23.56875       94.89957
C         94.91933       25.09655       97.52747
C         95.27357       24.10027       98.60491
C         94.26511       23.45243       99.33638
C         96.61947       23.83607       98.91312
C         94.59604       22.54709      100.34907
C         96.94860       22.93371       99.92878
C         95.94046       22.28506      100.64877
O         96.27456       21.41943      101.62705
H         94.19699       26.15363       95.10801
H         96.51152       24.50631       96.17334
H         93.81827       25.25301       97.48058
H         95.37878       26.06701       97.81913
H         93.22260       23.65001       99.12709
H         97.41528       24.33547       98.37513
H         93.80762       22.05444      100.90374
H         97.98918       22.74255      100.15956
H         95.60812       20.95286      102.15141
N         95.24479       22.21824       95.86111
C         94.68640       20.96836       95.34638
C         94.33144       20.03438       96.50465
O         95.04026       19.05867       96.71463
C         95.70070       20.28538       94.40094
C         95.99132       21.11294       93.14357
C         96.89016       20.35254       92.20965
O         96.52917       19.28261       91.74368
O         98.09432       20.85110       91.87295
H         96.10024       22.15477       96.43426
H         93.78193       21.13710       94.72997
H         95.25829       19.31549       94.07720
H         96.65294       20.07685       94.93811
H         96.47384       22.07144       93.43097
H         95.04182       21.33757       92.61083
N         93.25499       20.22616       97.32101
C         92.26063       21.28376       97.16951
C         91.47863       21.11246       95.87592
O         91.44813       20.01537       95.33331
C         91.32587       21.25150       98.39895
C         90.31861       22.40095       98.48296
C         89.62119       22.36862       99.81677
O         90.27402       22.44924      100.84496
O         88.27942       22.41277       99.88615
H         93.13818       19.55636       98.09935
H         92.79613       22.25401       97.15944
H         91.98517       21.32246       99.29160
H         90.78519       20.27984       98.44655
H         89.57285       22.33628       97.66120
H         90.85922       23.36778       98.39616
N         90.86237       22.18210       95.29901
C         90.13925       22.10751       94.04446
H         89.09141       22.43643       94.20212
H         90.62013       22.78078       93.30364
H         90.12459       21.08105       93.62067
H         90.92588       23.10494       95.75386
Ca        87.68982       24.55125       99.73170
O         85.29812       23.67326       98.18687
H         85.92436       24.26416       97.69739
H         84.59846       24.28445       98.52916
O         87.42118       27.00443      102.67229
H         88.27487       27.50502      102.64062
H         87.26782       26.83725      103.63616
O         88.83260       24.19294      103.36070
H         89.08507       23.28201      103.06765
H         89.65947       24.56148      103.76156
O         84.74966       25.17257      102.04157
H         83.78798       25.03435      101.85038
H         84.85372       24.91102      102.99105
O         86.44814       22.36920      102.31649
H         85.45859       22.36849      102.29376
H         86.70471       21.48379      101.95525

Ca 1.0



