%chk=apoCaM-CA-Ng.loop1.water4.frame960.chk
%nprocshared=20
%mem=10GB
%nosave
#b3lyp/svp scf=(tight,noincore,xqc) Test 
#IOP(5/87=12) Density=Current Pop=(MK,readradii) iop(6/33=2) iop(6/42=6)

apoCaM-CA-Ng.loop1.water4.frame960 

   0  1 
C         60.41812       69.66171       32.16922
C         60.82329       69.82684       33.60354
O         60.04369       70.34140       34.39287
H         59.39601       70.06130       31.99809
H         61.12917       70.21245       31.51711
H         60.43493       68.58559       31.89835
N         62.05598       69.41453       34.00868
C         62.54053       69.56122       35.37878
C         62.48202       71.01483       35.83530
O         62.76561       71.90979       35.05169
C         63.94461       68.93258       35.55671
C         65.03469       69.46559       34.66320
O         64.81161       70.32965       33.83252
O         66.27438       68.94868       34.76060
H         62.67213       68.98045       33.30383
H         61.87057       68.97598       36.04724
H         63.86133       67.84257       35.35165
H         64.25981       69.05549       36.61538
N         62.08138       71.30582       37.10748
C         61.84127       72.65215       37.61899
C         63.00518       73.05715       38.50562
O         62.87310       73.19574       39.71308
C         60.45217       72.66708       38.29354
C         60.00645       74.05107       38.79666
C         58.55496       73.97848       39.30282
C         58.00166       75.32510       39.79646
N         58.65952       75.78540       41.02029
H         61.92416       70.52102       37.75900
H         61.80477       73.39132       36.78790
H         60.43248       71.94250       39.13754
H         59.71803       72.32757       37.52878
H         60.05797       74.78322       37.96143
H         60.68113       74.38835       39.60804
H         58.46637       73.22554       40.11648
H         57.91500       73.64700       38.45553
H         56.91806       75.18970       40.01143
H         58.09699       76.09317       38.99739
H         59.67058       75.98287       40.85123
H         58.19971       76.66928       41.33775
H         58.55505       75.06718       41.77384
N         64.20356       73.27805       37.90177
C         65.44576       73.65647       38.57565
C         65.93020       75.01873       38.08472
O         65.44091       75.47600       37.06181
C         66.50976       72.55816       38.28077
C         66.81295       72.33409       36.80531
O         67.56823       71.43465       36.47468
O         66.23677       73.09601       35.85281
H         64.21232       73.17498       36.88067
H         65.26865       73.72278       39.66990
H         66.12274       71.60100       38.69226
H         67.46412       72.78074       38.79345
N         66.90618       75.74635       38.70487
C         67.47942       75.49181       40.02000
C         66.55299       75.95904       41.12234
O         65.40869       76.28956       40.84952
H         67.22340       76.60976       38.23514
H         68.37608       76.14333       40.11067
H         67.82460       74.45027       40.15403
N         67.00880       76.06568       42.40477
C         66.21208       76.67113       43.47022
C         66.01953       78.15649       43.18511
O         66.99947       78.88952       43.16778
C         66.91114       76.49658       44.83659
C         66.11739       77.10436       45.96230
O         64.99020       76.70586       46.20841
O         66.65037       78.09407       46.70473
H         67.96458       75.73855       42.61585
H         65.23223       76.14522       43.51952
H         67.91649       76.97262       44.80384
H         67.05005       75.41424       45.04468
N         64.78058       78.66063       42.92954
C         64.52443       80.06804       42.65519
C         64.14686       80.28751       41.20860
O         63.54481       81.30698       40.90286
H         63.97743       78.01492       42.88840
H         65.40014       80.71613       42.87348
H         63.69838       80.39812       43.32144
N         64.54022       79.40142       40.25144
C         64.25163       79.52706       38.83134
C         65.56479       79.67010       38.06821
O         66.62331       79.49802       38.65718
C         63.50255       78.24179       38.36817
C         62.22539       77.97424       39.17166
O         63.16724       78.32643       37.00809
H         65.10394       78.59314       40.53147
H         63.62681       80.42687       38.64058
H         64.19246       77.38041       38.53576
H         63.15630       77.39894       36.65269
H         62.45413       77.84951       40.25110
H         61.50268       78.80603       39.04208
H         61.75571       77.03056       38.81739
N         65.56897       79.92746       36.73103
C         66.77946       79.84711       35.91509
C         67.81957       80.94386       36.16067
O         68.88553       80.82225       35.57607
C         66.44161       79.73408       34.39660
C         65.76228       81.01261       33.84278
C         65.60138       78.46657       34.13832
C         65.57704       80.98030       32.32498
H         64.66018       80.06505       36.26989
H         67.28290       78.88841       36.18098
H         67.40569       79.59329       33.85802
H         66.40156       81.89115       34.07389
H         64.77242       81.17299       34.31843
H         65.47933       78.27420       33.05446
H         66.11712       77.58627       34.56831
H         64.59522       78.53485       34.59843
H         64.89171       80.16523       32.01685
H         65.13195       81.93929       31.98748
H         66.55866       80.84727       31.82233
N         67.62525       82.01049       36.99928
C         68.68818       82.99228       37.26192
C         68.24071       84.41380       36.92598
O         67.07047       84.64503       36.66659
C         69.10175       82.90848       38.76536
C         69.49182       81.49250       39.20505
O         70.15935       83.78330       39.06927
H         66.73184       82.11202       37.49996
H         69.58103       82.77149       36.63941
H         68.22788       83.21129       39.38350
H         70.95756       83.47632       38.56253
H         70.35400       81.11994       38.61360
H         69.76642       81.50068       40.28149
H         68.64385       80.79772       39.08032
N         69.15573       85.42821       36.98420
C         68.82368       86.84782       36.95780
C         69.56200       87.61633       35.86451
O         68.94442       88.50186       35.28481
C         69.13929       87.42387       38.36163
C         68.80272       88.91511       38.48932
O         70.48971       87.21208       38.68027
H         70.13686       85.18494       37.16333
H         67.73151       87.00043       36.80496
H         68.49736       86.86342       39.08334
H         70.55233       87.15492       39.66946
H         67.73106       89.08988       38.25725
H         68.99803       89.25424       39.52876
H         69.42719       89.52631       37.80451
N         70.87053       87.38351       35.54264
C         71.59783       88.23325       34.59967
C         72.81480       87.54174       34.01596
O         73.63090       87.01333       34.76024
C         71.97840       89.60317       35.23096
C         73.12941       89.62819       36.26726
C         72.87256       88.78238       37.52039
C         74.01900       88.82582       38.54453
N         74.16226       90.13976       39.17209
H         71.35713       86.58171       35.96688
H         70.91645       88.45853       33.74830
H         71.07203       90.06865       35.67292
H         72.30973       90.26514       34.39998
H         73.26823       90.68854       36.56304
H         74.07344       89.29300       35.78714
H         72.77909       87.72420       37.21747
H         71.93325       89.11464       38.00602
H         74.97506       88.52462       38.06088
H         73.79316       88.08148       39.34076
H         74.43260       90.86379       38.47072
H         73.26699       90.40958       39.64114
H         74.91493       90.08647       39.89597
N         73.02911       87.56771       32.66995
C         74.21257       86.98922       32.05176
C         74.22697       85.47280       32.21075
O         75.19076       84.97888       32.77746
C         74.35710       87.44272       30.57867
C         75.73896       87.09144       30.00419
C         75.90290       87.64588       28.61803
O         75.17113       87.27506       27.71427
O         76.86347       88.55630       28.36580
H         72.36020       88.07986       32.07333
H         75.09776       87.42167       32.57367
H         74.26379       88.55165       30.55506
H         73.56146       87.02125       29.93277
H         75.88388       85.99074       29.97865
H         76.52410       87.53557       30.65561
N         73.23251       84.63736       31.77882
C         71.99145       85.02897       31.13801
H         71.13778       84.68365       31.75858
H         71.87807       86.11468       31.00302
H         71.92332       84.54749       30.14056
H         73.35320       83.62499       31.93851
Ca        66.23614       72.73634       33.62304
O         67.48098       75.41452       33.95340
H         68.07984       74.84771       34.50104
H         66.59405       75.32274       34.38407
O         62.99061       73.28593       31.88191
H         63.46183       73.91799       31.28262
H         62.03517       73.53360       31.80187
O         68.83569       71.78904       32.66343
H         68.52395       71.35873       33.49958
H         68.80680       72.76030       32.85639
O         63.41243       74.86705       34.44012
H         63.83856       75.55454       35.00922
H         62.49017       74.79180       34.79197

Ca 1.0



