%chk=apoCaM-CA-Ng.loop2.water4.frame386.chk
%nprocshared=20
%mem=10GB
%nosave
#b3lyp/svp scf=(tight,noincore,xqc) Test 
#IOP(5/87=12) Density=Current Pop=(MK,readradii) iop(6/33=2) iop(6/42=6)

apoCaM-CA-Ng.loop2.water4.frame386 

   -2  1 
C         14.89893       81.31126       23.63341
C         14.06779       80.22930       24.25486
O         13.18180       80.54942       25.03519
H         15.66670       80.89260       22.95065
H         14.24314       81.99846       23.05910
H         15.41264       81.88612       24.43262
N         14.28695       78.91561       23.95663
C         13.49788       77.84586       24.56232
C         13.67912       77.81349       26.07511
O         14.63716       78.38089       26.57797
C         13.80828       76.47586       23.91303
C         15.24208       76.01420       24.03427
O         15.57273       74.95577       23.52421
O         16.16927       76.74931       24.67922
H         15.01640       78.68035       23.26625
H         12.42867       78.07288       24.35171
H         13.56667       76.54581       22.82941
H         13.14842       75.70090       24.35877
N         12.75099       77.20702       26.86807
C         12.81684       77.19958       28.33398
C         12.77006       78.61333       28.92250
O         12.67713       79.57282       28.17041
C         11.64944       76.36718       28.88479
H         11.95391       76.74344       26.40334
H         13.76690       76.71351       28.64606
H         11.69145       75.33859       28.46791
H         11.69623       76.28083       29.98922
H         10.67841       76.82877       28.60283
N         12.80638       78.80933       30.27815
C         12.77419       80.13166       30.89962
C         11.44311       80.33582       31.59062
O         11.08941       79.56435       32.47133
C         13.89809       80.31118       31.93809
C         15.26855       80.11032       31.37081
O         15.62955       78.90453       30.89823
O         16.07990       81.02113       31.38955
H         12.83250       77.99096       30.90284
H         12.90537       80.92351       30.12854
H         13.76679       79.59425       32.77609
H         13.82382       81.34358       32.35117
N         10.65852       81.38448       31.22978
C          9.35111       81.66447       31.79561
C          9.28435       83.02896       32.44779
O          8.67171       83.14618       33.49982
H         10.99457       82.00209       30.47796
H          9.01910       80.88748       32.51907
H          8.62596       81.65903       30.95478
N          9.85113       84.11694       31.85276
C          9.66725       85.48962       32.30191
C          9.06741       86.33202       31.16674
O          8.80718       87.50744       31.38430
C         11.02946       86.03927       32.77606
C         10.93406       87.41716       33.38672
N         11.63601       88.45381       32.87196
O         10.22469       87.59502       34.36613
H         10.43749       83.98134       31.01957
H          8.96389       85.51960       33.16395
H         11.74269       86.03766       31.92325
H         11.43296       85.35990       33.55880
H         12.24579       88.32556       32.05153
H         11.57305       89.39030       33.29852
N          8.80867       85.79704       29.93009
C          8.23927       86.53157       28.81615
C          9.11201       87.66277       28.31986
O         10.15637       87.94696       28.88964
H          8.98536       84.80402       29.73692
H          7.24569       86.93363       29.11016
H          8.08844       85.82738       27.96865
N          8.68537       88.38441       27.24716
C          9.33699       89.61207       26.79466
C         10.76758       89.43425       26.28351
O         11.44982       90.44698       26.18562
C          8.45528       90.36883       25.76062
C          8.24582       89.60819       24.43865
O          7.21698       90.71682       26.33467
H          7.79954       88.09255       26.81061
H          9.40575       90.26874       27.69089
H          8.96511       91.32215       25.50250
H          6.61588       89.92741       26.30320
H          7.74660       88.62956       24.59531
H          7.61943       90.21368       23.75084
H          9.21169       89.43263       23.94399
N         11.29933       88.22520       25.93506
C         12.69488       88.04840       25.51514
C         13.38596       87.07599       26.45750
O         12.75295       86.13872       26.93141
C         12.79018       87.57949       24.02367
C         12.17424       88.60207       23.03223
C         14.23498       87.26116       23.58616
C         12.84895       89.98154       22.99304
H         10.69637       87.38774       25.96720
H         13.25326       89.00512       25.59070
H         12.21021       86.63506       23.92160
H         11.11176       88.73861       23.27849
H         12.21398       88.17604       22.00562
H         14.25614       86.94463       22.52117
H         14.90359       88.13753       23.71298
H         14.64637       86.41997       24.17253
H         12.79204       90.49383       23.97218
H         13.91119       89.90547       22.68449
H         12.32870       90.62282       22.25098
N         14.72127       87.20204       26.70550
C         15.49552       86.27276       27.51834
C         16.31127       87.01398       28.59494
O         17.11786       86.38768       29.26242
C         16.39221       85.47224       26.54787
C         16.98116       84.20332       27.10316
O         16.69547       83.77242       28.34622
O         17.66694       83.50239       26.37653
H         15.23784       87.96033       26.22877
H         14.81981       85.54080       28.01434
H         17.18065       86.13176       26.13643
H         15.76222       85.12881       25.70023
N         16.12525       88.35072       28.83835
C         16.87966       89.11214       29.83546
C         18.30895       89.34978       29.36276
O         18.46641       89.81154       28.24261
C         16.20942       90.48997       30.05674
C         16.88652       91.25490       31.17104
C         17.97770       92.10096       30.90234
C         16.44972       91.09926       32.49742
C         18.62004       92.77583       31.94511
C         17.09428       91.77690       33.53655
C         18.17910       92.61342       33.26105
H         15.38669       88.85227       28.32809
H         16.82921       88.58603       30.81174
H         15.14469       90.32726       30.33452
H         16.20097       91.09495       29.12274
H         18.33603       92.23141       29.88892
H         15.61698       90.44618       32.72698
H         19.46267       93.42153       31.73380
H         16.75563       91.64896       34.55644
H         18.67925       93.13363       34.06772
N         19.40200       89.16070       30.17118
C         20.74894       89.53928       29.76577
C         21.36510       88.53468       28.81136
O         22.43847       88.80797       28.28815
C         21.49932       89.62805       31.09730
C         20.84464       88.51713       31.89597
C         19.36799       88.70227       31.54346
H         20.75326       90.54260       29.28462
H         22.60775       89.59240       31.02379
H         21.21338       90.58482       31.59248
H         21.19268       87.55187       31.46304
H         21.06010       88.51449       32.98540
H         18.83527       87.73555       31.67088
H         18.89783       89.49155       32.16780
N         20.76145       87.34571       28.54643
C         21.27769       86.38442       27.58690
C         21.10356       86.94351       26.19149
O         22.07681       87.03886       25.45814
C         20.54456       85.03755       27.74394
C         20.86314       84.41527       29.11723
C         20.14634       83.12024       29.33093
O         19.31846       82.98433       30.38459
O         20.33017       82.17819       28.57661
H         19.89376       87.10371       29.04720
H         22.35671       86.18424       27.78020
H         20.88277       84.33604       26.94971
H         19.45122       85.19266       27.63727
H         20.57056       85.10899       29.93376
H         21.95626       84.23139       29.19439
N         19.87889       87.36490       25.77131
C         19.65977       87.92230       24.45524
H         18.59498       88.22077       24.34487
H         20.29611       88.82154       24.31243
H         19.90103       87.16675       23.67846
H         19.07862       87.30967       26.41645
Ca        17.31328       81.66619       28.88780
O         16.92664       78.51394       28.30014
H         16.27480       77.82955       28.59488
H         17.50108       78.66638       29.09067
O         14.88002       81.70426       27.15694
H         15.23591       80.78525       27.07086
H         14.28934       81.66935       27.94969
O         18.55436       80.25991       26.37834
H         18.69024       79.30593       26.15055
H         18.26954       80.68067       25.52869
O         19.41896       79.87569       30.68633
H         19.36823       78.88718       30.70402
H         18.90186       80.16500       31.47952

Ca 1.0



