%chk=apoCaM-CA-Ng.loop2.water3.frame510.chk
%nprocshared=20
%mem=10GB
%nosave
#b3lyp/svp scf=(tight,noincore,xqc) Test 
#IOP(5/87=12) Density=Current Pop=(MK,readradii) iop(6/33=2) iop(6/42=6)

apoCaM-CA-Ng.loop2.water3.frame510 

   -2  1 
C         64.72089       84.13651       46.32823
C         63.39910       84.75779       46.67290
O         63.14812       85.87698       46.24810
H         65.53969       84.77899       46.71722
H         64.82554       83.12705       46.77813
H         64.81966       84.04997       45.22644
N         62.50773       84.10254       47.47020
C         61.24234       84.70691       47.87768
C         60.29311       84.85057       46.70221
O         60.50725       84.23999       45.66527
C         60.53517       83.86545       48.96622
C         61.32600       83.76641       50.24397
O         62.41924       83.22447       50.26389
O         60.81066       84.25462       51.38818
H         62.76349       83.17050       47.82802
H         61.46022       85.71517       48.29680
H         60.32818       82.84291       48.57968
H         59.55990       84.33890       49.21328
N         59.18691       85.63644       46.82603
C         58.15152       85.74312       45.80306
C         58.69288       86.24531       44.47278
O         59.69893       86.94120       44.47287
C         57.06154       86.71475       46.28967
H         59.06368       86.15646       47.70925
H         57.71596       84.73275       45.67350
H         56.23495       86.82879       45.56335
H         56.63027       86.35567       47.24700
H         57.50032       87.72366       46.45458
N         58.05060       86.01497       43.28638
C         56.86157       85.16946       43.13429
C         57.17713       83.68058       43.30076
O         58.34021       83.30540       43.35755
C         56.14686       85.46330       41.79048
C         56.96732       85.23542       40.54688
O         56.47555       85.47017       39.45459
O         58.23565       84.79157       40.61497
H         58.42774       86.49389       42.45364
H         56.12847       85.44572       43.91313
H         55.83894       86.53188       41.79482
H         55.22428       84.84877       41.72012
N         56.15801       82.77486       43.39788
C         56.34106       81.33047       43.52304
C         57.05077       80.89927       44.79675
O         57.41607       81.75168       45.59298
H         55.18831       83.12253       43.35470
H         56.91843       80.96429       42.64776
H         55.33840       80.85211       43.51470
N         57.32741       79.58427       45.06875
C         56.94544       78.44874       44.22721
C         58.15129       77.84222       43.51888
O         57.98418       76.83955       42.83754
C         56.28368       77.33693       45.07729
C         55.10922       77.79215       45.90233
N         55.08662       77.56805       47.23900
O         54.15786       78.33417       45.36091
H         57.87540       79.37572       45.91952
H         56.22777       78.75907       43.44132
H         57.04829       76.88759       45.74951
H         55.92580       76.53600       44.39362
H         55.86746       77.08551       47.70930
H         54.27600       77.85358       47.80728
N         59.39812       78.38373       43.63208
C         60.58976       77.79835       43.04355
C         60.65043       77.79597       41.52862
O         61.69209       77.39564       41.02662
H         59.54218       79.22546       44.20631
H         60.71733       76.76059       43.41965
H         61.46402       78.39018       43.39288
N         59.62770       78.20854       40.71722
C         59.78370       78.23075       39.26243
C         60.78421       79.30489       38.87195
O         61.15314       80.11015       39.71666
C         58.42594       78.41047       38.53697
C         57.53376       77.17980       38.73813
O         57.75123       79.54830       39.00744
H         58.73490       78.51552       41.12288
H         60.20020       77.24987       38.93991
H         58.58718       78.48840       37.43607
H         58.09513       80.32290       38.49289
H         56.56997       77.31448       38.20292
H         58.03435       76.27767       38.32307
H         57.32071       77.00440       39.81343
N         61.31451       79.34269       37.61707
C         62.36406       80.28274       37.24017
C         61.85758       81.19301       36.13394
O         61.51741       80.72543       35.05594
C         63.67804       79.52467       36.87107
C         64.78391       80.52730       36.43582
C         64.14773       78.68715       38.08203
C         66.11532       79.87987       36.04610
H         61.00217       78.65019       36.91847
H         62.62964       80.92419       38.10681
H         63.47256       78.83304       36.02447
H         64.97631       81.26009       37.24912
H         64.42744       81.07976       35.54201
H         63.36517       77.96554       38.39483
H         65.04366       78.08329       37.83501
H         64.38745       79.34629       38.94527
H         66.59605       79.38331       36.91318
H         65.96442       79.14327       35.22945
H         66.81545       80.66614       35.69158
N         61.82382       82.53553       36.35684
C         61.43211       83.56104       35.40707
C         62.63792       84.41128       35.01044
O         62.45902       85.32364       34.21764
C         60.36404       84.45085       36.06887
C         59.11915       83.67813       36.40142
O         58.81926       83.39900       37.68436
O         58.37685       83.29814       35.51023
H         62.12763       82.87901       37.26997
H         61.02640       83.10936       34.47481
H         60.08246       85.30934       35.42183
H         60.79971       84.87370       37.00056
N         63.90274       84.13760       35.46641
C         65.09499       84.82671       34.99389
C         65.93580       85.32494       36.17427
O         67.06841       84.89193       36.31933
C         65.83484       83.83239       34.06555
C         67.07535       84.37099       33.39268
C         67.02743       85.53826       32.60907
C         68.29279       83.67702       33.51227
C         68.17882       86.00399       31.96624
C         69.43801       84.14070       32.85887
C         69.38191       85.30421       32.08818
H         64.06202       83.34586       36.10161
H         64.82535       85.70435       34.37214
H         65.12796       83.54497       33.25609
H         66.07550       82.90844       34.63600
H         66.10350       86.08859       32.49050
H         68.35375       82.76745       34.09728
H         68.13673       86.90430       31.36697
H         70.36805       83.59395       32.94586
H         70.26953       85.66075       31.58186
N         65.45923       86.26643       37.05330
C         66.23760       86.84469       38.14883
C         66.83517       85.84991       39.12346
O         67.79471       86.19768       39.80007
C         65.20511       87.69510       38.89939
C         64.31622       88.16813       37.77646
C         64.16058       86.89683       36.94588
H         67.04244       87.46237       37.69132
H         64.57212       87.03318       39.53769
H         65.64052       88.49105       39.54077
H         63.35886       88.63723       38.08681
H         64.90420       88.90769       37.18553
H         63.39587       86.20660       37.36573
H         63.89664       87.19642       35.90969
N         66.26960       84.62803       39.31513
C         66.78068       83.66113       40.27495
C         68.15515       83.21144       39.83401
O         69.09951       83.35189       40.59752
C         65.85909       82.42823       40.47093
C         64.49456       82.75320       41.12398
C         63.41461       83.20273       40.18548
O         62.18932       83.46567       40.66973
O         63.58759       83.19942       38.98396
H         65.45100       84.39818       38.75289
H         66.85402       84.14513       41.27602
H         66.38918       81.78105       41.20460
H         65.72825       81.82522       39.54599
H         64.63396       83.48635       41.94685
H         64.09513       81.81779       41.56937
N         68.33674       82.69171       38.58698
C         69.62619       82.27719       38.07497
H         70.43483       82.38170       38.82858
H         69.57223       81.21491       37.76003
H         69.88590       82.90228       37.19458
H         67.52730       82.61061       37.95326
Ca        60.43559       83.59270       39.25681
O         60.95694       84.60600       42.84483
H         61.26061       83.74305       43.22304
H         61.73044       85.21171       42.96319
O         61.20475       81.18004       42.36509
H         61.07515       81.13087       43.34459
H         61.96606       80.57316       42.18537
O         56.98299       82.19593       40.08460
H         56.12936       82.03145       40.55656
H         56.70916       82.47966       39.17664

Ca 1.0



