%chk=apoCaM-CA-Ng.loop2.water3.frame36.chk
%nprocshared=20
%mem=10GB
%nosave
#b3lyp/svp scf=(tight,noincore,xqc) Test 
#IOP(5/87=12) Density=Current Pop=(MK,readradii) iop(6/33=2) iop(6/42=6)

apoCaM-CA-Ng.loop2.water3.frame36 

   -2  1 
C         62.76845       47.39016       60.86756
C         63.56726       46.88999       62.03620
O         64.77121       46.72830       61.90025
H         61.69303       47.49260       61.12529
H         63.15322       48.37843       60.54174
H         62.85701       46.66931       60.02692
N         62.95997       46.62373       63.22672
C         63.66694       46.07383       64.37778
C         64.15673       44.67002       64.06872
O         65.33055       44.39951       64.27989
C         62.75234       46.05619       65.61657
C         63.50715       45.62201       66.84535
O         64.57677       46.32667       67.26505
O         63.15325       44.63521       67.46965
H         61.95010       46.81637       63.31559
H         64.52648       46.73932       64.62459
H         61.88117       45.38820       65.43995
H         62.37286       47.08436       65.80186
N         63.31288       43.73837       63.51828
C         63.70436       42.36972       63.17218
C         64.86541       42.30696       62.17593
O         65.38871       41.22559       61.94676
C         64.01836       41.58611       64.45244
H         62.34039       44.01525       63.31528
H         62.83758       41.85327       62.70223
H         64.22651       40.52223       64.20828
H         64.89219       42.00512       64.98970
H         63.13395       41.61189       65.12535
N         65.31376       43.42839       61.54248
C         66.46681       43.50641       60.66525
C         67.73617       43.17598       61.44347
O         68.41256       42.20588       61.12895
C         66.27564       42.66213       59.37789
C         67.23660       43.17425       58.34365
O         68.17206       42.49650       57.95029
O         67.08750       44.45128       57.93504
H         64.81829       44.31202       61.68365
H         66.54390       44.57199       60.34765
H         65.25463       42.80923       58.96475
H         66.41436       41.57980       59.58912
N         68.11603       43.97315       62.48517
C         69.28163       43.71772       63.32202
C         70.38584       44.74500       63.13952
O         71.39193       44.63291       63.82555
H         67.55322       44.81104       62.69746
H         69.72728       42.72469       63.09641
H         68.95147       43.69964       64.38271
N         70.31321       45.72328       62.19138
C         71.42764       46.61612       61.87650
C         71.73763       47.58330       63.01031
O         70.85736       48.30006       63.46389
C         71.16126       47.36027       60.55097
C         70.89989       46.37207       59.39272
N         71.98505       45.41704       59.18317
O         70.62647       47.04078       58.19892
H         69.47163       45.77789       61.60000
H         72.33226       45.99772       61.69789
H         72.04063       47.99202       60.29903
H         70.27291       48.01962       60.66546
H         71.95280       44.71020       59.95185
H         71.77370       44.87345       58.31515
N         73.00930       47.64747       63.49857
C         73.45113       48.47547       64.60864
C         73.30724       49.96632       64.37971
O         73.74241       50.46647       63.35240
H         73.72872       47.04518       63.06958
H         74.53697       48.28434       64.75551
H         72.93496       48.16318       65.54095
N         72.80623       50.75157       65.37848
C         72.78677       52.21706       65.33272
C         71.75675       52.76763       64.34840
O         71.76393       53.96782       64.10659
C         72.53829       52.75551       66.77329
C         72.65581       54.27717       66.92155
O         71.27386       52.33854       67.22433
H         72.52680       50.28463       66.25495
H         73.80062       52.55362       65.01975
H         73.33688       52.30668       67.41252
H         71.33525       52.22936       68.20931
H         73.64876       54.62489       66.56744
H         71.85460       54.80742       66.36990
H         72.55038       54.55010       67.99345
N         70.81133       51.97039       63.77956
C         69.73421       52.46708       62.92586
C         69.79120       51.79361       61.56212
O         70.67805       50.97582       61.34090
C         68.36153       52.25162       63.64946
C         68.04508       50.74793       63.88930
C         68.33993       53.05510       64.96587
C         66.66323       50.49620       64.49540
H         70.81242       50.96554       63.99847
H         69.83987       53.56019       62.74460
H         67.56040       52.67217       63.00577
H         68.79649       50.28534       64.56167
H         68.07506       50.21655       62.91544
H         67.34193       53.02116       65.44630
H         69.08941       52.66265       65.68401
H         68.56477       54.12457       64.76683
H         65.87140       50.93128       63.85043
H         66.49364       49.40162       64.57851
H         66.58685       50.92102       65.51687
N         68.84561       52.05200       60.61052
C         68.76512       51.31288       59.35532
C         68.61649       52.23102       58.12613
O         68.43665       51.71616       57.03351
C         67.61148       50.29586       59.51673
C         67.59227       49.17213       58.51366
O         66.67285       48.19858       58.64710
O         68.42249       49.09208       57.62236
H         68.07807       52.70526       60.83294
H         69.68718       50.70681       59.21248
H         66.63482       50.82219       59.53641
H         67.74412       49.78976       60.49875
N         68.74146       53.59337       58.20831
C         68.68242       54.46866       57.03244
C         67.26314       54.56366       56.47093
O         66.37675       54.91670       57.23630
C         69.12649       55.90919       57.39673
C         69.09918       56.79995       56.16905
C         70.00744       56.59308       55.11544
C         68.13463       57.81579       56.04888
C         69.93700       57.37194       53.95614
C         68.06700       58.59183       54.88713
C         68.96442       58.36745       53.84015
H         68.95843       54.02224       59.11845
H         69.40843       54.08774       56.28709
H         70.14961       55.91421       57.83056
H         68.43281       56.30286       58.17252
H         70.75847       55.81581       55.18332
H         67.41863       57.99091       56.84165
H         70.62995       57.19645       53.14315
H         67.31125       59.36085       54.79399
H         68.90443       58.96285       52.93809
N         66.96566       54.37383       55.14267
C         65.64389       54.60337       54.56620
C         64.57654       53.78813       55.25022
O         63.52046       54.31687       55.56750
C         65.80059       54.17737       53.10223
C         67.24368       54.53600       52.83858
C         67.91421       54.01679       54.10592
H         65.41259       55.69239       54.61774
H         65.73159       53.06948       53.01212
H         65.05844       54.63722       52.41404
H         67.66728       54.13898       51.89257
H         67.32477       55.64914       52.82792
H         68.02365       52.90998       54.08982
H         68.90066       54.49766       54.18751
N         64.83974       52.49292       55.57552
C         63.92547       51.63326       56.31380
C         63.53169       52.30798       57.61463
O         62.34639       52.51456       57.83489
C         64.59224       50.26919       56.60517
C         64.92286       49.48151       55.32431
C         65.63581       48.20256       55.65275
O         66.76365       48.00469       55.22903
O         65.03723       47.26693       56.41393
H         65.77190       52.12796       55.33241
H         63.00828       51.45782       55.70756
H         63.91024       49.65440       57.23286
H         65.52882       50.44510       57.17538
H         65.57614       50.07662       54.65339
H         63.98729       49.24805       54.77415
N         64.48321       52.71881       58.49993
C         64.18015       53.42370       59.72907
H         63.08973       53.57669       59.87353
H         64.57465       52.84893       60.59182
H         64.66839       54.42110       59.70688
H         65.47664       52.55150       58.28438
Ca        68.78842       45.86852       57.57620
O         70.02616       44.12805       55.33060
H         69.36548       43.59690       54.81929
H         70.06548       43.68735       56.21634
O         66.88966       45.05302       54.67330
H         66.06540       45.31920       54.19346
H         66.74830       44.09989       54.90035
O         69.97093       47.55892       55.20261
H         70.93428       47.40282       55.03553
H         69.66087       48.07371       54.41593

Ca 1.0



