%chk=apoCaM-CA-Ng.loop4.water7.frame1048.chk
%nprocshared=20
%mem=10GB
%nosave
#b3lyp/svp scf=(tight,noincore,xqc) Test 
#IOP(5/87=12) Density=Current Pop=(MK,readradii) iop(6/33=2) iop(6/42=6)

apoCaM-CA-Ng.loop4.water7.frame1048 

   -3  1 
C         60.85565       76.07609       58.15543
C         61.34399       76.11976       56.73244
O         60.66189       75.58400       55.87134
H         59.88860       75.53147       58.22046
H         61.59171       75.55041       58.79797
H         60.69718       77.10902       58.53082
N         62.50368       76.73913       56.36516
C         63.42321       77.41163       57.27993
C         63.51215       78.90788       57.00220
O         64.23477       79.58333       57.72326
C         64.82312       76.78135       57.15537
C         64.80125       75.30820       57.44925
O         65.15061       74.50794       56.59614
O         64.40406       74.86368       58.65675
H         62.75248       76.72810       55.36486
H         63.08478       77.30637       58.33139
H         65.52139       77.26850       57.87029
H         65.20984       76.94966       56.12531
N         62.79672       79.51132       56.00615
C         62.82982       80.95658       55.78441
C         64.18914       81.47427       55.30707
O         64.33541       82.68781       55.25913
C         61.72521       81.41601       54.77320
C         61.96943       80.84367       53.34768
C         60.31929       81.07089       55.30473
C         61.00996       81.38773       52.28941
H         62.16467       78.94033       55.43286
H         62.60693       81.44358       56.76120
H         61.77833       82.52630       54.70899
H         61.89635       79.73864       53.35346
H         62.99225       81.11848       53.01358
H         59.53090       81.50411       54.65692
H         60.15726       79.97486       55.36120
H         60.17802       81.50347       56.31761
H         61.29055       80.97586       51.29663
H         59.96426       81.08396       52.49516
H         61.07514       82.49551       52.24382
N         65.20286       80.64894       54.89424
C         66.44625       81.15845       54.30166
C         67.44740       80.03161       54.03899
O         67.04488       78.92789       53.69879
C         66.13580       81.90293       52.97626
C         67.34233       82.57694       52.38670
O         67.69829       82.31709       51.24898
O         68.00861       83.50830       53.09549
H         65.07400       79.63245       54.97082
H         66.90511       81.86978       55.02421
H         65.39524       82.70746       53.14261
H         65.69387       81.19280       52.24467
N         68.78830       80.25134       54.17875
C         69.78994       79.20855       53.98818
C         69.94092       78.71144       52.55799
O         70.69138       77.76849       52.36233
H         69.11332       81.18270       54.47906
H         69.53194       78.35499       54.65150
H         70.78435       79.59285       54.30249
N         69.31024       79.30534       51.50687
C         69.40921       78.85623       50.12072
C         67.99671       78.64903       49.59908
O         67.47956       79.50901       48.89932
C         70.17646       79.89950       49.28707
C         71.60343       80.01796       49.74531
O         72.07518       81.19808       50.18791
O         72.34426       79.04737       49.70862
H         68.73918       80.13957       51.68044
H         69.97776       77.90594       50.01565
H         69.67461       80.88888       49.35520
H         70.18609       79.58114       48.22086
N         67.26320       77.55476       49.93678
C         67.81234       76.39492       50.61354
C         68.55548       75.51380       49.61688
O         68.62088       75.88811       48.45338
H         66.28465       77.49679       49.61511
H         66.96255       75.82101       51.00656
H         68.40842       76.69714       51.48940
N         69.09828       74.29672       49.92306
C         69.17489       73.64893       51.22938
C         67.81713       73.59742       51.90154
O         67.70667       74.01561       53.04784
C         70.22588       74.33519       52.13535
C         71.59378       74.51547       51.45729
C         72.59938       75.19775       52.35733
N         73.83035       75.49707       51.88509
O         72.30989       75.49446       53.50828
H         69.49485       73.75635       49.13698
H         69.52228       72.60527       51.05683
H         70.34794       73.72713       53.05928
H         69.86213       75.33602       52.43357
H         71.46519       75.15134       50.55473
H         71.99575       73.52788       51.14575
H         74.09153       75.26681       50.91543
H         74.51991       75.97107       52.48728
N         66.71186       73.19155       51.21159
C         65.37038       73.32751       51.77306
C         64.61556       74.43393       51.04828
O         64.99724       74.82460       49.95345
C         64.59869       71.97753       51.78948
C         65.37018       70.91465       52.58448
C         64.29003       71.44814       50.38084
H         66.81761       72.87970       50.23430
H         65.44194       73.66738       52.82875
H         63.62625       72.14202       52.30352
H         66.34518       70.68851       52.10123
H         65.55667       71.26808       53.62027
H         64.78119       69.97382       52.63957
H         63.70104       70.50791       50.44431
H         63.67936       72.18606       49.82891
H         65.21719       71.24125       49.80747
N         63.51952       74.98795       51.63012
C         62.68959       76.02087       51.01183
C         61.33844       75.43789       50.61159
O         60.49077       76.16567       50.11372
C         62.51037       77.17543       52.01454
C         63.83295       77.79093       52.38747
N         64.57508       78.43970       51.46336
O         64.23544       77.70764       53.53647
H         63.22410       74.62538       52.55143
H         63.15545       76.40767       50.07957
H         62.01434       76.77727       52.92838
H         61.85878       77.96832       51.58901
H         64.24483       78.53228       50.49278
H         65.47955       78.85839       51.71815
N         61.08977       74.11084       50.78784
C         59.84722       73.42310       50.46629
C         59.86987       72.02219       51.07668
O         60.93261       71.54522       51.45804
C         59.57232       73.36809       48.94430
C         60.68482       72.69216       48.16526
C         60.48772       71.41723       47.60895
C         61.92609       73.32981       47.97635
C         61.51657       70.78598       46.90078
C         62.94908       72.70120       47.26263
C         62.75004       71.42271       46.72788
O         63.73337       70.79945       46.04769
H         61.83034       73.54915       51.21029
H         59.02678       73.97069       50.98122
H         59.41347       74.38447       48.52549
H         58.61744       72.81581       48.80565
H         59.54277       70.90421       47.73436
H         62.11139       74.31736       48.36907
H         61.35523       69.79864       46.48769
H         63.89732       73.20842       47.13169
H         64.60224       71.20480       45.91314
N         58.71410       71.34185       51.30922
C         58.71231       70.13556       52.12560
C         57.97888       70.45361       53.40925
O         56.76493       70.60526       53.39237
C         58.15021       68.93288       51.35743
C         58.30175       67.63533       52.16752
C         57.84712       66.44463       51.37739
O         58.39906       66.15628       50.32699
O         56.84338       65.67361       51.83576
H         57.81414       71.74470       51.00432
H         59.75315       69.85706       52.39718
H         58.73622       68.83106       50.41674
H         57.08495       69.10657       51.09059
H         57.71017       67.70789       53.10544
H         59.37032       67.48415       52.43781
N         58.69056       70.65298       54.55612
C         58.08761       71.02207       55.83125
C         57.29681       72.31045       55.68154
O         56.10665       72.30717       55.96315
C         59.19028       71.14738       56.90998
C         58.63051       71.22378       58.33962
C         59.74727       71.19980       59.35144
O         60.55452       70.28353       59.34404
O         59.85577       72.15596       60.29370
H         59.71760       70.55770       54.51242
H         57.40691       70.19644       56.13775
H         59.85234       72.01686       56.69820
H         59.81008       70.22502       56.85622
H         57.99362       70.33112       58.51754
H         58.00813       72.13332       58.46849
N         57.89028       73.43655       55.19042
C         57.17946       74.67845       54.95334
H         56.10808       74.61715       55.23917
H         57.65328       75.49586       55.53483
H         57.23438       74.93056       53.87273
H         58.88974       73.41020       54.93928
Ca        58.29871       73.75285       60.62698
O         58.84429       76.68561       61.12985
H         58.06285       76.90600       61.69638
H         59.59792       76.60560       61.76696
O         55.62592       75.02866       61.72203
H         55.57100       75.96392       61.40152
H         54.83913       74.92156       62.31335
O         56.03685       71.46891       60.72658
H         55.08039       71.58149       60.95640
H         56.10239       70.54318       60.38147
O         56.76107       75.12506       58.56405
H         57.06499       74.44496       57.91242
H         56.95082       75.99247       58.12711
O         57.98380       74.59010       63.95855
H         58.65582       74.32902       64.63732
H         57.88770       75.56941       64.06826
O         60.89257       74.04725       62.54981
H         61.56179       73.58393       61.98607
H         61.18811       73.87446       63.47874
O         58.24867       71.43968       63.17461
H         58.55763       70.61264       62.72619
H         58.62912       71.38487       64.08721

Ca 1.0



