%chk=apoCaM-CA-Ng.loop3.water2.frame528.chk
%nprocshared=20
%mem=10GB
%nosave
#b3lyp/svp scf=(tight,noincore,xqc) Test 
#IOP(5/87=12) Density=Current Pop=(MK,readradii) iop(6/33=2) iop(6/42=6)

apoCaM-CA-Ng.loop3.water2.frame528 

   0  1 
C         70.16825       -4.90099       73.78678
C         69.24636       -5.78889       74.56579
O         68.18675       -6.14057       74.06654
H         71.13875       -5.41992       73.63707
H         69.73665       -4.65807       72.79267
H         70.34085       -3.95805       74.34616
N         69.60430       -6.20764       75.81087
C         68.78526       -7.10819       76.61298
C         67.44464       -6.45764       76.90992
O         67.42856       -5.36720       77.46491
C         69.55565       -7.52014       77.88904
C         68.97677       -8.71732       78.59232
O         69.60951       -9.22580       79.66539
O         67.97128       -9.26747       78.17642
H         70.51406       -5.89294       76.18392
H         68.63210       -8.03419       76.03509
H         69.64339       -6.66010       78.58641
H         70.57831       -7.82937       77.59061
N         66.27675       -7.06657       76.54585
C         64.96368       -6.45979       76.72692
C         64.32964       -6.93670       78.03327
O         63.35645       -6.33918       78.46734
C         64.08876       -6.78171       75.49180
C         62.80342       -5.94445       75.38535
C         61.88539       -6.47018       74.27028
C         60.65381       -5.57008       74.09666
N         59.66825       -6.18767       73.20987
H         66.31254       -8.01945       76.16346
H         65.09895       -5.35735       76.79729
H         63.85692       -7.86449       75.52363
H         64.67270       -6.59414       74.56324
H         63.08960       -4.88799       75.18809
H         62.22415       -5.98643       76.32861
H         61.54870       -7.48534       74.55685
H         62.42693       -6.54118       73.30096
H         60.97940       -4.59077       73.67919
H         60.17100       -5.39027       75.08168
H         59.29879       -7.06442       73.64506
H         58.87434       -5.52464       73.05895
H         60.09575       -6.41548       72.28915
N         64.86809       -7.97702       78.73954
C         64.43592       -8.38080       80.07164
C         65.54105       -8.16117       81.10511
O         65.25528       -8.32206       82.27864
C         63.95149       -9.85509       80.08237
C         64.90125      -10.84190       79.43026
O         66.20245      -10.88302       79.76393
O         64.49085      -11.59271       78.56376
H         65.65500       -8.49779       78.34048
H         63.59049       -7.74274       80.41180
H         62.97825       -9.91431       79.54757
H         63.76573      -10.15784       81.13547
N         66.79618       -7.74965       80.76927
C         67.85797       -7.45801       81.72194
C         68.44969       -8.62713       82.50646
O         69.39983       -8.34880       83.22514
H         67.01029       -7.54475       79.78777
H         67.50699       -6.68047       82.43311
H         68.70506       -7.01750       81.14902
N         67.99722       -9.92246       82.45942
C         68.63430      -10.99992       83.23497
C         69.07847      -12.16372       82.36010
O         68.67600      -12.25368       81.21344
C         67.68765      -11.57095       84.31964
C         67.23168      -10.55140       85.33057
N         66.32047       -9.61430       84.99771
O         67.65590      -10.60053       86.47494
H         67.17827      -10.15397       81.88549
H         69.54265      -10.61444       83.74563
H         68.24085      -12.36217       84.87043
H         66.79498      -12.05105       83.85960
H         65.91350       -9.61586       84.05938
H         65.98917       -8.92301       85.68593
N         69.89270      -13.12796       82.88279
C         70.23205      -14.37896       82.22039
C         70.86981      -14.20503       80.85916
O         71.90145      -13.55981       80.74346
H         70.25766      -12.99724       83.83855
H         69.30299      -14.98210       82.12701
H         70.92800      -14.95285       82.86972
N         70.28832      -14.79869       79.77830
C         70.77672      -14.71258       78.40574
C         70.86368      -13.24494       77.91384
O         70.10163      -12.24657       78.54157
C         69.88237      -15.58028       77.48110
C         70.16519      -17.06084       77.60372
C         71.38035      -17.57897       77.11659
C         69.21750      -17.94240       78.14781
C         71.63821      -18.95200       77.16541
C         69.48313      -19.31645       78.20644
C         70.69270      -19.82574       77.70930
O         70.95429      -21.14851       77.74238
H         69.43560      -15.35382       79.94533
H         71.81552      -15.10461       78.34057
H         70.04928      -15.34612       76.40914
H         68.82155      -15.35461       77.70999
H         72.12000      -16.92175       76.67541
H         68.27459      -17.56871       78.52527
H         72.57066      -19.33818       76.77118
H         68.74520      -19.98579       78.62985
H         70.32470      -21.79065       78.10004
N         71.12030      -13.07228       76.47181
C         71.61773      -11.75732       76.00653
C         70.45556      -10.89735       75.52860
O         69.63244      -10.49359       76.33111
C         72.53586      -10.99063       77.02467
C         73.00088       -9.60418       76.49121
C         73.75292      -11.83291       77.45513
C         73.89835       -9.63914       75.25087
H         71.85550      -13.77725       76.22464
H         72.24912      -11.96387       75.11391
H         71.94684      -10.76639       77.93788
H         73.55406       -9.07781       77.29962
H         72.11308       -8.98347       76.25209
H         73.44373      -12.77208       77.95385
H         74.38271      -12.10568       76.58395
H         74.37069      -11.26334       78.18245
H         74.84681      -10.17420       75.45909
H         73.38341      -10.11379       74.39234
H         74.15534       -8.59824       74.96148
N         70.37142      -10.54187       74.21349
C         69.42187       -9.56977       73.67351
C         67.96172       -9.94692       73.86984
O         67.19444       -9.08586       74.26472
C         69.68641       -9.31046       72.18374
O         70.97906       -8.79179       72.00036
H         71.07184      -10.93345       73.56654
H         69.60611       -8.59469       74.16495
H         68.96731       -8.54797       71.81184
H         69.52769      -10.23234       71.57921
H         71.56595       -9.54519       71.73261
N         67.48637      -11.18653       73.57525
C         66.06648      -11.54239       73.68893
C         65.52952      -11.32423       75.10185
O         66.29438      -11.52585       76.03205
C         65.88177      -13.00456       73.26237
H         68.16031      -11.89585       73.24730
H         65.50608      -10.90224       72.99771
H         66.23652      -13.13681       72.21846
H         66.46037      -13.68156       73.91928
H         64.82553      -13.31984       73.30388
N         64.25669      -10.90289       75.40105
C         63.15886      -10.59906       74.48072
C         62.75136      -11.82578       73.68805
O         62.42881      -12.82482       74.31798
C         61.92151      -10.15620       75.28984
H         64.04915      -10.77836       76.40010
H         63.45802       -9.75164       73.83733
H         61.58142      -10.96825       75.97028
H         62.15039       -9.27866       75.92563
H         61.08205       -9.89684       74.61040
N         62.73323      -11.88803       72.32369
C         63.07571      -10.80622       71.40391
C         63.53574      -11.40132       70.08715
O         64.67941      -11.18002       69.71057
C         61.90242       -9.81460       71.22802
C         62.25803       -8.71657       70.20710
C         61.17659       -7.68929       70.06638
O         61.43137       -6.50941       70.24897
O         59.93332       -8.05372       69.69867
H         62.49138      -12.80509       71.91492
H         63.93668      -10.23246       71.78415
H         61.67408       -9.34480       72.20912
H         60.99294      -10.35483       70.88484
H         62.41380       -9.17644       69.20852
H         63.20070       -8.21373       70.51653
N         62.70841      -12.17537       69.33543
C         63.14671      -12.76003       68.08800
H         64.01965      -13.42371       68.26927
H         62.32773      -13.36104       67.64151
H         63.43528      -11.95762       67.37605
H         61.74677      -12.36179       69.65709
Ca        67.81285      -12.08847       78.66184
O         67.80912      -13.69620       76.22215
H         68.37166      -13.65942       75.40925
H         67.18936      -14.45422       76.07543
O         66.91843      -14.57546       79.87482
H         66.66712      -14.40495       80.81703
H         66.13069      -15.02483       79.47907

Ca 1.0



