%chk=apoCaM-CA-Ng.loop3.water4.frame151.chk
%nprocshared=20
%mem=10GB
%nosave
#b3lyp/svp scf=(tight,noincore,xqc) Test 
#IOP(5/87=12) Density=Current Pop=(MK,readradii) iop(6/33=2) iop(6/42=6)

apoCaM-CA-Ng.loop3.water4.frame151 

   0  1 
C         64.19540       51.20971       87.74069
C         64.65781       50.46874       88.95962
O         63.85587       50.24526       89.85393
H         63.11890       51.47547       87.82402
H         64.78421       52.14345       87.62507
H         64.33467       50.57363       86.84171
N         65.95338       50.04368       89.05356
C         66.50680       49.30597       90.18843
C         66.60696       50.16509       91.45889
O         66.81045       49.61797       92.53039
C         65.72523       47.97913       90.38336
C         66.40620       47.03338       91.33227
O         67.53369       46.62988       91.09424
O         65.76667       46.60797       92.43822
H         66.58373       50.23449       88.25918
H         67.55078       49.02342       89.92866
H         65.65212       47.46103       89.40189
H         64.69556       48.17499       90.74590
N         66.53618       51.52921       91.39486
C         66.60295       52.41868       92.55806
C         65.29911       53.18970       92.71425
O         65.21363       54.03580       93.59901
C         67.77563       53.40661       92.38601
C         69.15746       52.73077       92.30378
C         69.58001       51.94300       93.55992
C         69.68614       52.82086       94.81923
N         70.17594       52.04432       95.95792
H         66.42324       51.98315       90.47797
H         66.74286       51.85069       93.50088
H         67.78327       54.13618       93.22313
H         67.61500       53.98965       91.45250
H         69.91693       53.52076       92.11668
H         69.17062       52.04193       91.43201
H         70.57978       51.50278       93.35454
H         68.87861       51.10352       93.74551
H         68.69155       53.24239       95.07878
H         70.38731       53.66278       94.62528
H         70.23920       52.66724       96.79556
H         69.51732       51.25966       96.16875
H         71.12702       51.66170       95.75047
N         64.22685       52.92451       91.92108
C         62.93528       53.58034       92.01347
C         62.39174       53.44585       93.43764
O         62.37153       52.34895       93.97604
C         62.00888       52.97378       90.92851
C         60.68462       53.65217       90.87295
O         60.31487       54.24658       89.87328
O         59.90750       53.59818       91.95612
H         64.31059       52.18835       91.21306
H         63.06299       54.65861       91.76781
H         61.85144       51.88994       91.11872
H         62.50322       53.08613       89.93692
N         61.97675       54.55756       94.10958
C         61.57402       54.60690       95.50937
C         60.45414       53.66218       95.89479
O         60.63636       52.93280       96.86009
H         61.98482       55.45635       93.60702
H         61.25000       55.64502       95.73950
H         62.45976       54.39245       96.14831
N         59.27540       53.60713       95.20588
C         58.18523       52.70256       95.58163
C         58.15419       51.42248       94.74252
O         57.20686       50.65832       94.86692
C         56.81079       53.41247       95.68977
C         56.15532       53.85274       94.36868
N         54.70998       53.93630       94.52277
O         56.62526       55.10349       93.96381
H         59.18079       54.18118       94.36174
H         58.36239       52.32958       96.61468
H         56.85710       54.26980       96.39669
H         56.13454       52.66025       96.15147
H         54.34047       52.97417       94.69402
H         54.31472       54.24200       93.60951
N         59.23169       51.04423       93.99674
C         59.35996       49.74597       93.35513
C         58.46538       49.59247       92.15842
O         57.67746       48.65827       92.11562
H         60.05372       51.65417       93.95896
H         59.18359       48.93833       94.10063
H         60.40223       49.63388       92.98522
N         58.56939       50.46847       91.12222
C         57.81577       50.34840       89.88523
C         56.82198       51.47026       89.78471
O         57.21848       52.62683       89.80409
C         58.74125       50.38659       88.65427
C         59.57615       49.13929       88.52788
C         59.27037       48.21344       87.51658
C         60.64876       48.87766       89.39734
C         60.01056       47.03980       87.38332
C         61.39708       47.70345       89.25506
C         61.07521       46.77850       88.24919
O         61.77817       45.63782       88.10428
H         59.21787       51.26212       91.21576
H         57.25209       49.39001       89.85376
H         59.38536       51.29478       88.64260
H         58.07757       50.45405       87.76303
H         58.44587       48.39213       86.83695
H         60.91278       49.58031       90.17704
H         59.75128       46.33267       86.60569
H         62.22399       47.51194       89.92686
H         62.52027       45.41313       88.68247
N         55.49396       51.18442       89.66754
C         54.47133       52.20511       89.53965
C         53.64915       52.19926       90.80688
O         53.59500       53.22459       91.46446
C         53.57494       51.97938       88.28417
C         54.37171       51.69883       86.98326
C         52.61714       53.17360       88.08131
C         55.29747       52.82616       86.52534
H         55.19052       50.19892       89.68590
H         54.94556       53.20104       89.43089
H         52.95999       51.06851       88.45600
H         53.64895       51.48963       86.16368
H         54.98229       50.78082       87.12138
H         51.99781       53.35741       88.97619
H         53.17655       54.11276       87.89452
H         51.93522       52.98234       87.22610
H         54.73030       53.75266       86.30451
H         56.06575       53.03301       87.29342
H         55.81208       52.51613       85.59152
N         52.98998       51.07569       91.22461
C         52.15490       51.06302       92.42392
C         50.97536       52.01014       92.27053
O         50.46129       52.48267       93.27387
C         51.65151       49.64806       92.73458
O         52.74640       48.79430       92.94842
H         53.08089       50.20949       90.67239
H         52.78179       51.40174       93.27935
H         51.01764       49.29249       91.88657
H         51.02536       49.65529       93.65248
H         52.61132       47.98830       92.38529
N         50.52903       52.35602       91.02650
C         49.50127       53.34019       90.70756
C         49.90247       54.78612       91.00212
O         49.17563       55.66656       90.56120
C         48.15296       52.97592       91.33962
H         50.94119       51.87355       90.21623
H         49.36395       53.29858       89.60267
H         48.19327       53.03103       92.44601
H         47.36377       53.67362       90.98757
H         47.86431       51.94576       91.04016
N         51.01629       55.13373       91.71741
C         51.38263       56.52581       91.95308
C         52.05881       57.12629       90.73629
O         52.44759       56.39558       89.83465
C         52.35144       56.63307       93.13710
H         51.59787       54.41268       92.15020
H         50.46335       57.09254       92.21967
H         52.58667       57.69455       93.36170
H         51.90194       56.17543       94.04355
H         53.30108       56.11206       92.90036
N         52.25620       58.47575       90.67152
C         53.01534       59.16663       89.63076
C         52.46364       58.98389       88.21688
O         53.08945       59.49092       87.29547
C         54.51217       58.77838       89.70033
C         55.09437       59.01313       91.10682
C         56.57610       58.78441       91.14206
O         57.09583       57.83708       91.94528
O         57.31967       59.47935       90.46781
H         51.88015       59.05838       91.43499
H         52.97627       60.25788       89.84693
H         55.06990       59.41163       88.97496
H         54.65872       57.72093       89.40618
H         54.60416       58.32597       91.82924
H         54.90163       60.05912       91.42775
N         51.30688       58.30544       87.95479
C         50.79451       58.09269       86.61569
H         49.79085       58.55705       86.52712
H         51.45307       58.52186       85.83173
H         50.70404       57.00143       86.43022
H         50.73974       57.91984       88.71982
Ca        57.97902       54.63865       92.24122
O         59.78367       56.79631       92.84083
H         60.64803       57.22816       92.62791
H         59.74294       56.78277       93.83014
O         57.62702       55.01954       88.26284
H         58.13325       54.26685       87.86573
H         57.44994       55.62868       87.50351
O         59.56171       57.12360       89.13997
H         58.76547       57.46079       89.62024
H         59.65001       57.72177       88.35624
O         55.69520       55.56383       90.49325
H         54.98034       55.45457       89.81826
H         55.28518       55.26018       91.34056

Ca 1.0



