%chk=apoCaM-CA-Ng.loop2.water5.frame72.chk
%nprocshared=20
%mem=10GB
%nosave
#b3lyp/svp scf=(tight,noincore,xqc) Test 
#IOP(5/87=12) Density=Current Pop=(MK,readradii) iop(6/33=2) iop(6/42=6)

apoCaM-CA-Ng.loop2.water5.frame72 

   -2  1 
C         45.12149       52.85258       83.79119
C         44.86073       51.48948       84.37290
O         44.54422       50.56432       83.63810
H         46.01643       52.80095       83.13652
H         44.26649       53.23207       83.21773
H         45.31353       53.59878       84.58896
N         45.07303       51.29135       85.70146
C         45.05704       49.98368       86.35154
C         43.67078       49.42602       86.63949
O         43.60183       48.27563       87.04208
C         45.88506       50.05604       87.65035
C         45.36008       51.03861       88.67419
O         46.05953       51.24322       89.80426
O         44.32888       51.66818       88.48991
H         45.42452       52.09900       86.23479
H         45.57929       49.26679       85.67544
H         46.91349       50.37190       87.36974
H         45.95175       49.04941       88.11445
N         42.53612       50.16976       86.49146
C         41.17401       49.65466       86.63582
C         40.85743       48.64783       85.53280
O         40.08539       47.72680       85.76784
C         40.90587       49.07093       88.04164
H         42.62683       51.16273       86.23538
H         40.48518       50.51748       86.50672
H         39.81731       48.88205       88.17118
H         41.42650       48.10036       88.18948
H         41.23071       49.77339       88.83681
N         41.49707       48.71329       84.32129
C         41.35108       47.70434       83.27382
C         41.69573       46.30115       83.77320
O         41.31760       45.32855       83.13456
C         39.98071       47.83564       82.56124
C         39.96160       49.01283       81.59486
O         38.96463       49.22583       80.92250
O         41.08972       49.74079       81.38575
H         42.16726       49.47492       84.14776
H         42.11901       47.87916       82.48840
H         39.15757       47.88761       83.30701
H         39.80515       46.94116       81.92662
N         42.54698       46.13253       84.83130
C         43.05921       44.84814       85.28098
C         43.99307       44.21612       84.27172
O         44.37745       43.07149       84.46377
H         42.88698       46.95508       85.32516
H         42.20021       44.17284       85.47778
H         43.62686       44.97897       86.22790
N         44.38543       44.89488       83.15950
C         45.04634       44.26826       82.03326
C         46.55660       44.28453       82.21700
O         47.14773       45.34496       82.37353
C         44.56648       44.98602       80.76254
C         45.20465       44.43670       79.52532
N         46.15077       45.16152       78.89710
O         44.88595       43.33765       79.09876
H         44.09249       45.87372       83.03717
H         44.69553       43.21734       81.94140
H         44.80237       46.06809       80.85932
H         43.45811       44.90428       80.67364
H         46.42016       46.06998       79.28393
H         46.63052       44.81351       78.05754
N         47.23389       43.10249       82.22500
C         48.65108       42.96720       82.49926
C         49.56730       43.60374       81.47760
O         49.23156       43.69180       80.30512
H         46.70408       42.22932       82.08952
H         48.90640       41.88387       82.51213
H         48.87109       43.35454       83.51713
N         50.83174       43.92266       81.87133
C         51.91555       44.32685       80.97417
C         51.72550       45.70407       80.33119
O         52.56364       46.06838       79.51750
C         53.28930       44.18781       81.70862
C         53.48279       45.12927       82.91441
O         53.49101       42.84647       82.09287
H         51.04639       43.76532       82.86528
H         51.95403       43.58852       80.14271
H         54.10916       44.42157       80.99534
H         52.90644       42.63736       82.86563
H         53.59308       46.17604       82.57507
H         52.64166       45.07742       83.63449
H         54.40909       44.84916       83.46148
N         50.67610       46.52606       80.63761
C         50.46242       47.83633       80.00646
C         49.01296       48.03027       79.62046
O         48.17166       47.28850       80.09838
C         50.88030       48.98889       80.96165
C         50.12694       48.90097       82.32103
C         52.40156       48.98585       81.14101
C         50.47642       50.02030       83.29826
H         50.00935       46.22624       81.36094
H         51.05045       47.90322       79.06299
H         50.62525       49.95580       80.47297
H         50.34516       47.93509       82.82469
H         49.03258       48.95253       82.13476
H         52.89909       49.02390       80.14834
H         52.72883       49.88385       81.70085
H         52.73111       48.07851       81.67966
H         51.53961       49.95781       83.60808
H         50.27510       51.01043       82.84035
H         49.85738       49.91289       84.21398
N         48.64005       49.05846       78.80017
C         47.23683       49.35420       78.52788
C         46.99881       50.07634       77.19814
O         45.89266       50.53918       76.97423
C         46.65267       50.08528       79.75297
C         45.15839       50.09582       79.74677
O         44.50201       51.24790       79.92285
O         44.53366       49.05434       79.63180
H         49.37359       49.68335       78.43704
H         46.69485       48.38845       78.41654
H         47.05851       51.11893       79.82867
H         46.94164       49.53638       80.67185
N         47.94787       50.11061       76.22031
C         47.69637       50.58503       74.86311
C         47.24596       52.04571       74.81245
O         48.01890       52.89202       75.23668
C         48.99353       50.43362       74.03518
C         48.75982       50.68241       72.57271
C         48.38418       49.61507       71.74346
C         48.90760       51.96727       72.02521
C         48.15503       49.82875       70.38371
C         48.67239       52.17834       70.66373
C         48.29580       51.10994       69.84399
H         48.86146       49.67584       76.39803
H         46.93033       49.91064       74.42982
H         49.40406       49.40620       74.14999
H         49.78106       51.11659       74.42700
H         48.26997       48.61855       72.15307
H         49.19872       52.80257       72.65045
H         47.86678       48.99993       69.75099
H         48.78131       53.16982       70.24442
H         48.11335       51.27366       68.79066
N         46.05435       52.44076       74.25179
C         45.66592       53.83314       74.05589
C         45.77413       54.70623       75.30289
O         46.32603       55.79282       75.20054
C         44.21788       53.75539       73.55686
C         44.19142       52.43633       72.81821
C         45.06163       51.53855       73.69231
H         46.31063       54.24762       73.24689
H         43.52682       53.65485       74.41852
H         43.90835       54.62813       72.93770
H         43.17665       52.03495       72.59985
H         44.72702       52.58637       71.85412
H         44.49553       51.07653       74.52273
H         45.48671       50.75659       73.02806
N         45.27320       54.30458       76.51091
C         45.38014       55.12458       77.72205
C         46.82848       55.30235       78.14949
O         47.15599       56.35542       78.68048
C         44.57528       54.55909       78.92568
C         43.04500       54.65295       78.76104
C         42.49742       53.72751       77.71004
O         42.42407       52.38363       77.86188
O         42.07912       54.20889       76.67084
H         44.82257       53.38029       76.56973
H         44.96231       56.13549       77.51110
H         44.81462       55.19880       79.80632
H         44.89557       53.52935       79.16588
H         42.81148       55.71029       78.49184
H         42.53325       54.44693       79.72102
N         47.73468       54.29540       78.01306
C         49.11758       54.42587       78.42454
H         49.71366       54.88040       77.60485
H         49.20889       55.04533       79.34260
H         49.53267       53.42088       78.64990
H         47.43807       53.40007       77.60198
Ca        41.73309       51.05752       79.60722
O         42.24794       52.68714       81.60249
H         43.18002       52.36025       81.58389
H         42.25499       53.47755       82.19169
O         41.82223       48.02823       79.13613
H         41.14493       47.34254       78.91402
H         42.58097       47.83234       78.53244
O         42.81885       50.07394       76.33391
H         43.54628       50.69899       76.56790
H         42.24597       50.60048       75.72258
O         39.91615       49.98602       77.34827
H         38.94717       49.90888       77.53384
H         39.98235       50.70962       76.67581
O         39.55340       52.50550       79.86345
H         39.27872       53.37607       79.48645
H         39.54008       52.62423       80.84629

Ca 1.0



