%chk=apoCaM-CA-Ng.loop4.water5.frame591.chk
%nprocshared=20
%mem=10GB
%nosave
#b3lyp/svp scf=(tight,noincore,xqc) Test 
#IOP(5/87=12) Density=Current Pop=(MK,readradii) iop(6/33=2) iop(6/42=6)

apoCaM-CA-Ng.loop4.water5.frame591 

   -3  1 
C         40.80063      123.64612      -15.58248
C         40.68796      123.97163      -17.03878
O         40.61806      123.06026      -17.84676
H         41.73525      124.08470      -15.17531
H         39.92776      124.06886      -15.04278
H         40.82107      122.54628      -15.42634
N         40.66048      125.27348      -17.44443
C         40.56557      125.72170      -18.83279
C         39.21787      125.38731      -19.48990
O         39.05223      125.73245      -20.65285
C         41.71798      125.14726      -19.69110
C         43.08356      125.19784      -19.06759
O         43.70558      126.35106      -18.77436
O         43.67274      124.14893      -18.85606
H         40.74063      126.00593      -16.72268
H         40.66615      126.82963      -18.83285
H         41.74011      125.64549      -20.68467
H         41.51820      124.08413      -19.86352
N         38.21759      124.71109      -18.83975
C         36.96812      124.32947      -19.50288
C         36.15615      125.55883      -19.88265
O         36.34921      126.59969      -19.26914
C         36.08355      123.38738      -18.60995
C         35.57250      124.09516      -17.32066
C         36.83286      122.07969      -18.29476
C         34.56911      123.26322      -16.51897
H         38.35380      124.42708      -17.86499
H         37.25175      123.77333      -20.42392
H         35.18486      123.10583      -19.19690
H         35.03396      125.02395      -17.60349
H         36.41825      124.37624      -16.65961
H         36.17773      121.35971      -17.76531
H         37.14921      121.59046      -19.23724
H         37.72931      122.26086      -17.66742
H         34.20155      123.86140      -15.65814
H         33.69840      122.99331      -17.15449
H         35.03338      122.34248      -16.11426
N         35.17566      125.53477      -20.82821
C         34.98445      124.46924      -21.80666
C         35.94707      124.67784      -22.95896
O         36.52707      123.71549      -23.44139
C         33.54508      124.49522      -22.35980
C         32.52861      124.26301      -21.27674
O         31.67093      125.10131      -21.05049
O         32.54888      123.12192      -20.56096
H         34.64960      126.41094      -20.97880
H         35.12568      123.45908      -21.37013
H         33.42841      123.68750      -23.11586
H         33.34514      125.46709      -22.86308
N         36.16139      125.93462      -23.44573
C         36.95851      126.23343      -24.61642
C         36.19633      125.82369      -25.84666
O         35.04981      126.22767      -25.98781
H         35.72522      126.73945      -22.97443
H         37.96967      125.77366      -24.54182
H         37.09193      127.33452      -24.67846
N         36.76753      125.03667      -26.79516
C         36.04259      124.59194      -27.98418
C         34.95871      123.55431      -27.67268
O         34.26441      123.15894      -28.59972
C         37.02790      124.12204      -29.08903
C         38.12107      123.17718      -28.64883
O         39.28859      123.51673      -28.75844
O         37.84489      121.96542      -28.14712
H         37.75825      124.78021      -26.67424
H         35.51557      125.46620      -28.43076
H         37.53376      125.03335      -29.47806
H         36.46086      123.68135      -29.93772
N         34.72820      123.07745      -26.41045
C         33.70478      122.08781      -26.09473
C         34.01577      120.69550      -26.62101
O         33.22973      119.79575      -26.36601
H         35.27585      123.43250      -25.61975
H         32.71781      122.43767      -26.47016
H         33.63176      121.99666      -24.98929
N         35.14705      120.43929      -27.34147
C         35.55045      119.14876      -27.89112
C         35.96818      118.14717      -26.82680
O         36.29958      117.02456      -27.18778
C         34.48904      118.58284      -28.85325
C         34.13050      119.60343      -29.94799
C         33.18586      119.05659      -30.98667
N         32.76762      119.85637      -31.99350
O         32.79623      117.89873      -30.93309
H         35.77876      121.20901      -27.54314
H         36.46742      119.31675      -28.50114
H         33.57089      118.28652      -28.30439
H         34.91250      117.67279      -29.33306
H         35.05812      119.93397      -30.46405
H         33.65210      120.48966      -29.47850
H         33.08353      120.83604      -32.05034
H         32.12539      119.49814      -32.71518
N         36.06108      118.49268      -25.51277
C         36.52504      117.59240      -24.46904
C         37.84551      118.10914      -23.93291
O         38.81994      117.37115      -23.94511
C         35.44575      117.48181      -23.35144
C         34.15929      116.85161      -23.90765
C         35.93539      116.65095      -22.15202
H         35.83211      119.45378      -25.22327
H         36.70794      116.56768      -24.86603
H         35.19982      118.49953      -22.97393
H         33.75126      117.45728      -24.74296
H         34.35971      115.82262      -24.27774
H         33.38239      116.79703      -23.11513
H         35.14220      116.59603      -21.37522
H         36.20175      115.61971      -22.46625
H         36.82247      117.12400      -21.68022
N         37.93505      119.35873      -23.39914
C         39.12323      119.82455      -22.69697
C         40.34633      119.99589      -23.60756
O         40.20210      119.96540      -24.82314
C         38.78317      121.16250      -22.00993
C         39.76832      121.48911      -20.94170
N         39.85713      120.71352      -19.83509
O         40.49445      122.45424      -21.07857
H         37.09099      119.95067      -23.39780
H         39.33948      119.05356      -21.92478
H         37.78962      121.11523      -21.51534
H         38.73590      121.96324      -22.78342
H         39.22970      119.90491      -19.71022
H         40.54139      120.91928      -19.09601
N         41.59256      120.17779      -23.06907
C         42.80026      120.42203      -23.86229
C         44.03228      120.34776      -22.96326
O         44.09184      121.10444      -22.00771
C         42.75164      121.83273      -24.49486
C         43.87849      122.02938      -25.47939
C         44.98480      122.84117      -25.17384
C         43.81793      121.39323      -26.72925
C         46.01613      123.00459      -26.10675
C         44.83950      121.57097      -27.66454
C         45.94287      122.37285      -27.35806
O         46.92210      122.52804      -28.27199
H         41.68798      120.10795      -22.04464
H         42.86477      119.64117      -24.65243
H         42.80552      122.58482      -23.67513
H         41.79678      122.02050      -25.02852
H         45.05796      123.33472      -24.21245
H         42.96833      120.77169      -26.98376
H         46.86983      123.62282      -25.85829
H         44.77136      121.08458      -28.62942
H         47.70391      123.07274      -28.10359
N         45.02709      119.44068      -23.18370
C         46.16331      119.24777      -22.27407
C         47.18496      120.38817      -22.38623
O         47.78902      120.49011      -23.44587
C         46.84055      117.89756      -22.63195
C         47.93789      117.46622      -21.65345
C         48.53770      116.15403      -22.07431
O         48.44453      115.07892      -21.26865
O         49.11675      116.05642      -23.14497
H         44.91740      118.79963      -23.98572
H         45.75864      119.15310      -21.24585
H         47.25967      117.95790      -23.66250
H         46.06084      117.10331      -22.63161
H         47.48896      117.35048      -20.64419
H         48.74547      118.22699      -21.60966
N         47.46456      121.30265      -21.39987
C         46.74020      121.45546      -20.13616
C         47.00045      120.34649      -19.13753
O         47.88258      119.52718      -19.34637
C         47.00205      122.85984      -19.52024
C         48.41078      123.05480      -18.93770
C         48.66043      124.48424      -18.51509
O         49.61079      125.08818      -18.98578
O         47.88421      125.10595      -17.60145
H         48.16667      122.02223      -21.63564
H         45.66901      121.44769      -20.37543
H         46.26939      123.05468      -18.70848
H         46.82252      123.61030      -20.31825
H         49.17761      122.77430      -19.69071
H         48.53632      122.39133      -18.05526
N         46.23772      120.27594      -18.00982
C         46.39085      119.25937      -16.99036
H         46.60361      119.74847      -16.01677
H         45.44345      118.68671      -16.90174
H         47.21261      118.54919      -17.21776
H         45.49244      120.97368      -17.86635
Ca        45.84110      125.92976      -18.14409
O         45.98865      126.09203      -21.17661
H         45.05397      125.79740      -21.31601
H         46.52332      125.51688      -21.77928
O         47.87389      128.17775      -19.20193
H         47.99704      127.28464      -19.61023
H         48.77218      128.59188      -19.23861
O         45.96128      128.03831      -15.66616
H         45.68466      127.70055      -14.77745
H         46.44536      128.88008      -15.47252
O         45.02630      129.27407      -18.50549
H         45.12915      130.08491      -17.94654
H         44.95253      129.61759      -19.43121
O         45.52467      124.79444      -15.38865
H         44.62019      124.39244      -15.36977
H         46.12947      124.03817      -15.59544

Ca 1.0



