%chk=apoCaM-CA-Ng.loop1.water3.frame104.chk
%nprocshared=20
%mem=10GB
%nosave
#b3lyp/svp scf=(tight,noincore,xqc) Test 
#IOP(5/87=12) Density=Current Pop=(MK,readradii) iop(6/33=2) iop(6/42=6)

apoCaM-CA-Ng.loop1.water3.frame104 

   0  1 
C         58.25891       36.51218       95.23244
C         57.96074       35.79656       96.51749
O         58.88169       35.39057       97.21089
H         59.35357       36.58710       95.06315
H         57.80314       35.95757       94.38445
H         57.82873       37.53536       95.26619
N         56.66786       35.60466       96.89289
C         56.27392       34.91690       98.12127
C         56.82425       33.49646       98.19987
O         57.11810       33.04070       99.29462
C         54.73594       34.93470       98.30836
C         53.96196       34.22210       97.21965
O         53.15685       33.18987       97.52433
O         54.01886       34.60039       96.06143
H         55.93952       35.98987       96.27476
H         56.70319       35.48606       98.97646
H         54.39266       35.99180       98.34430
H         54.49351       34.47528       99.29168
N         56.96965       32.73510       97.08167
C         57.50331       31.37276       97.08542
C         58.99403       31.33520       97.39933
O         59.71140       32.11836       96.79205
C         57.33075       30.74478       95.68423
C         55.86376       30.42194       95.38488
C         55.72566       29.75202       94.01162
C         54.31243       29.20542       93.75535
N         53.28997       30.25175       93.76820
H         56.66802       33.14099       96.18257
H         56.93139       30.76625       97.80352
H         57.88561       29.78583       95.64110
H         57.76559       31.41121       94.90550
H         55.25413       31.34860       95.42249
H         55.50055       29.71758       96.16520
H         56.42028       28.88432       93.96093
H         56.01242       30.47240       93.21438
H         54.06785       28.43696       94.52248
H         54.31025       28.70699       92.76083
H         52.36829       29.82227       93.52515
H         53.20680       30.67519       94.71972
H         53.51853       30.98921       93.06334
N         59.59962       30.38958       98.19390
C         58.98443       29.31937       98.98823
C         57.96224       28.48795       98.21463
O         56.79949       28.47653       98.59584
C         58.39853       29.87822      100.30053
C         59.41291       30.50496      101.21846
O         60.59319       30.58272      100.91488
O         59.01005       30.95030      102.42081
H         60.63206       30.40597       98.21322
H         59.78617       28.61793       99.30333
H         57.97369       29.02488      100.86448
H         57.59514       30.61020      100.08806
N         58.27885       27.75042       97.11807
C         59.63550       27.55187       96.63639
C         59.66014       26.83934       95.29605
O         58.63691       26.78365       94.62749
H         57.49866       27.27260       96.64037
H         60.18764       26.97701       97.40403
H         60.15099       28.52201       96.48574
N         60.80604       26.32677       94.76850
C         62.07087       26.21860       95.49398
C         62.00345       25.11163       96.54892
O         61.01078       24.39704       96.60645
C         63.23503       25.92450       94.51054
C         63.16595       24.57087       93.83837
O         64.14981       23.67457       94.04211
O         62.24406       24.28261       93.09260
H         60.75235       25.98785       93.79782
H         62.29087       27.19942       95.96923
H         64.19248       25.97770       95.07039
H         63.26740       26.71739       93.73256
N         63.06614       24.86764       97.37281
C         63.13856       23.69708       98.23735
C         62.11153       23.63632       99.34802
O         62.00429       22.57530       99.94777
H         63.89816       25.47241       97.31454
H         64.14800       23.61978       98.69502
H         62.99916       22.80256       97.59040
N         61.32761       24.69867       99.69254
C         60.24390       24.59755      100.67232
C         58.92229       24.93558       99.99798
O         58.93380       25.35846       98.85094
C         60.53923       25.44074      101.93903
C         60.74430       26.93167      101.66056
O         61.69115       24.92915      102.56058
H         61.47473       25.60358       99.22172
H         60.14154       23.54505      101.01707
H         59.66797       25.32666      102.62670
H         61.61815       25.13673      103.52952
H         61.62136       27.09882      101.00023
H         59.83549       27.35727      101.19791
H         60.93224       27.46798      102.61566
N         57.73248       24.68381      100.61606
C         56.44066       24.86753       99.94628
C         55.47602       25.77175      100.71214
O         54.38041       25.99732      100.21723
C         55.75011       23.48393       99.73161
C         55.34641       22.81338      101.07777
C         56.64188       22.54805       98.89281
C         54.32376       21.69251      100.89755
H         57.75175       24.26797      101.55961
H         56.58951       25.33106       98.94568
H         54.82098       23.68301       99.15231
H         54.84531       23.54869      101.74028
H         56.24480       22.43772      101.61359
H         56.90694       23.02879       97.92796
H         57.58118       22.30621       99.43650
H         56.12315       21.59601       98.66311
H         53.40466       22.10261      100.42391
H         54.71745       20.86451      100.27807
H         54.04473       21.28668      101.89299
N         55.75710       26.22131      101.96535
C         54.74780       26.81854      102.83463
C         54.17068       28.12816      102.33002
O         52.96764       28.30456      102.45744
C         55.26262       26.94606      104.29196
C         56.43974       27.91273      104.45752
O         55.65594       25.68192      104.76431
H         56.67810       26.01692      102.37069
H         53.89823       26.09965      102.90487
H         54.43521       27.33031      104.93384
H         54.82765       25.14931      104.89593
H         57.31745       27.59290      103.85948
H         56.15605       28.94023      104.15978
H         56.74007       27.94091      105.52594
N         54.96105       29.10745      101.80074
C         54.48942       30.44457      101.42609
C         54.10846       31.22678      102.68656
O         54.19703       30.67308      103.77456
C         53.35459       30.37401      100.34838
C         53.77927       29.58227       99.10616
O         52.94845       31.65023       99.93937
H         55.96050       28.90717      101.68281
H         55.34671       30.99330      100.97770
H         52.46014       29.87865      100.77272
H         53.76185       32.12056       99.62060
H         52.94188       29.55415       98.37625
H         54.65034       30.06949       98.62068
H         54.04341       28.53931       99.37061
N         53.69558       32.52834      102.62645
C         53.33257       33.30642      103.80826
C         54.12687       34.60918      103.90833
O         53.98361       35.29672      104.90959
C         51.81607       33.58335      103.77812
C         51.02696       32.26478      103.66702
C         49.51252       32.48918      103.64159
C         48.73323       31.18848      103.36509
N         48.94657       30.16773      104.39342
H         53.58581       32.98501      101.71516
H         53.54984       32.72524      104.73138
H         51.57411       34.22662      102.90317
H         51.51807       34.11866      104.70643
H         51.29675       31.61424      104.52580
H         51.30790       31.75122      102.72227
H         49.27002       33.20039      102.82188
H         49.18252       32.93711      104.60374
H         49.02884       30.77954      102.37262
H         47.64997       31.43590      103.32074
H         48.69595       30.54472      105.33572
H         48.33614       29.34510      104.18372
H         49.93766       29.83708      104.38929
N         54.97215       35.01989      102.91568
C         55.77357       36.23536      102.95797
C         55.26580       37.18029      101.88720
O         55.98790       37.51562      100.95711
C         57.25577       35.84604      102.75765
C         57.79552       35.07793      103.97222
C         59.13943       34.47720      103.68173
O         60.17208       35.23850      103.27625
O         59.29736       33.27410      103.79786
H         55.07117       34.46127      102.05850
H         55.67506       36.77475      103.92626
H         57.88687       36.75170      102.61808
H         57.33433       35.22358      101.83705
H         57.10193       34.25347      104.24620
H         57.86876       35.77346      104.83637
N         53.99909       37.66935      101.98216
C         53.44834       38.59031      101.01315
H         52.41232       38.86751      101.30378
H         54.06358       39.51453      100.97548
H         53.42361       38.11602      100.00969
H         53.40696       37.38827      102.77886
Ca        62.09189       34.17663      102.71363
O         60.16068       33.46118      100.07883
H         59.30555       33.72313      100.50292
H         60.17749       33.95725       99.22273
O         63.53381       31.08765      102.04577
H         64.21616       31.10380      101.32842
H         63.74714       30.27734      102.57346
O         61.59320       31.24822      104.66574
H         60.94586       30.53376      104.89163
H         61.79354       31.68500      105.53156

Ca 1.0



