%chk=apoCaM-CA-Ng.loop3.water5.frame30.chk
%nprocshared=20
%mem=10GB
%nosave
#b3lyp/svp scf=(tight,noincore,xqc) Test 
#IOP(5/87=12) Density=Current Pop=(MK,readradii) iop(6/33=2) iop(6/42=6)

apoCaM-CA-Ng.loop3.water5.frame30 

   0  1 
C         59.27986       70.11415       56.48798
C         58.21942       70.73281       57.34968
O         57.80669       71.84692       57.06546
H         60.18348       69.90680       57.09830
H         58.90282       69.16541       56.05281
H         59.56215       70.79887       55.65834
N         57.72567       70.05207       58.42789
C         56.69215       70.56406       59.33335
C         57.17229       71.74334       60.18498
O         56.35715       72.34027       60.87496
C         55.39517       70.89295       58.55774
C         54.91578       69.70050       57.77541
O         54.80531       69.76564       56.56142
O         54.61102       68.55241       58.41053
H         58.08849       69.10398       58.61085
H         56.43256       69.76076       60.05832
H         55.54903       71.75202       57.87287
H         54.59672       71.18304       59.27328
N         58.49005       72.09018       60.23733
C         59.03919       73.20325       61.01381
C         59.75249       74.21152       60.10881
O         60.30231       75.18086       60.61155
C         59.99250       72.64811       62.10756
C         61.13533       71.74598       61.58606
C         61.98795       71.20473       62.74696
C         62.99806       70.12510       62.31124
N         64.03251       70.63897       61.41347
H         59.16139       71.52538       59.70146
H         58.23008       73.75861       61.53695
H         59.37806       72.04354       62.81035
H         60.42291       73.49699       62.68308
H         61.76953       72.30999       60.87007
H         60.69893       70.86654       61.07075
H         61.30704       70.71993       63.48041
H         62.51298       72.03927       63.26034
H         62.45788       69.28499       61.81962
H         63.48925       69.71978       63.22384
H         64.69270       69.86056       61.18361
H         63.61414       70.98614       60.52198
H         64.56756       71.40389       61.88437
N         59.80505       74.02116       58.76177
C         60.59398       74.81405       57.83618
C         59.87537       76.09227       57.43820
O         58.69463       76.03124       57.13099
C         60.84181       73.93809       56.58156
C         61.92236       74.44910       55.67868
O         62.60255       75.56935       55.98310
O         62.23195       73.80035       54.69421
H         59.35005       73.19622       58.36526
H         61.59343       75.00760       58.28435
H         59.89344       73.79413       56.01663
H         61.19357       72.93813       56.92104
N         60.54399       77.27755       57.34251
C         59.94190       78.49006       56.79958
C         59.64462       78.42939       55.29871
O         59.11167       79.40689       54.79311
H         61.52743       77.32512       57.64528
H         60.64185       79.33938       56.95145
H         59.00827       78.71644       57.36108
N         59.93480       77.33656       54.52599
C         59.58912       77.21656       53.10838
C         58.45266       76.21265       52.91144
O         57.99756       76.06404       51.78522
C         60.81794       76.75776       52.29067
C         61.96701       77.73342       52.30684
N         61.85148       78.95639       51.74242
O         63.03183       77.40108       52.79980
H         60.37334       76.51787       54.95840
H         59.21929       78.18766       52.71188
H         60.53293       76.60375       51.22883
H         61.15500       75.77765       52.69590
H         60.97419       79.24930       51.29057
H         62.65528       79.60266       51.73598
N         57.92096       75.51122       53.95664
C         56.78672       74.61750       53.84514
C         57.08733       73.44163       52.95566
O         57.96386       72.65580       53.28091
H         58.29986       75.63012       54.89476
H         55.91811       75.20015       53.46993
H         56.51786       74.22957       54.85199
N         56.34577       73.25949       51.82859
C         56.48523       72.20585       50.83081
C         57.65181       72.41525       49.87428
O         57.41307       72.29991       48.68589
C         56.45678       70.76254       51.38517
C         55.98246       69.84528       50.27189
C         54.64121       69.93496       49.85127
C         56.84202       68.94924       49.61559
C         54.17191       69.16529       48.78875
C         56.37058       68.18436       48.53843
C         55.03415       68.29552       48.12017
O         54.56780       67.58042       47.07658
H         55.57548       73.92623       51.66281
H         55.57116       72.32123       50.20463
H         55.73911       70.66203       52.22773
H         57.46915       70.49422       51.76049
H         53.95720       70.61458       50.34555
H         57.87699       68.86110       49.91110
H         53.13849       69.25802       48.47793
H         57.04551       67.51419       48.02158
H         55.13118       66.98261       46.56607
N         58.92272       72.67993       50.30940
C         60.10928       72.93103       49.48723
C         60.01228       74.27015       48.74309
O         60.81154       75.13905       49.05952
C         60.52340       71.70134       48.62182
C         60.66748       70.45330       49.53886
C         61.86948       71.97191       47.91602
C         61.06974       69.16823       48.81092
H         59.09599       72.71527       51.31563
H         60.95483       73.06364       50.20562
H         59.74441       71.51291       47.85227
H         59.70055       70.25927       50.04255
H         61.42540       70.65391       50.32877
H         61.83023       72.87537       47.29862
H         62.68500       72.11275       48.65700
H         62.13818       71.14574       47.22816
H         61.10564       68.33159       49.54033
H         60.33324       68.92300       48.01825
H         62.08297       69.25236       48.36739
N         59.08003       74.54576       47.77886
C         59.00716       75.84432       47.11306
C         60.11885       75.99918       46.08909
O         60.36891       77.11533       45.65575
C         57.63414       76.04798       46.46126
O         56.63875       75.95772       47.44804
H         58.40512       73.84024       47.48795
H         59.11421       76.63374       47.89221
H         57.48895       75.26911       45.67612
H         57.57914       77.05266       45.98914
H         55.84235       75.54407       47.02534
N         60.85281       74.91948       45.68811
C         62.04944       74.97547       44.86402
C         63.07516       75.88142       45.52880
O         63.59219       76.79502       44.90264
C         61.70901       75.36473       43.42061
H         60.58417       73.98819       46.02365
H         62.47967       73.94886       44.82738
H         60.97204       74.64198       43.00712
H         61.27593       76.38380       43.36515
H         62.62292       75.32444       42.79121
N         63.35277       75.70029       46.85207
C         64.22768       76.55724       47.63858
C         65.23738       75.71655       48.38230
O         64.84741       74.74869       49.01911
C         63.39417       77.33609       48.65656
H         62.85948       74.94851       47.35402
H         64.73910       77.31261       47.00253
H         62.87051       76.65306       49.35611
H         64.05589       78.00612       49.24764
H         62.64396       77.96210       48.12871
N         66.55595       76.05877       48.38075
C         67.59197       75.32059       49.09422
C         67.69794       73.92257       48.51576
O         67.60100       72.94152       49.24266
C         67.34535       75.30942       50.62727
C         67.19377       76.71908       51.22096
C         66.95556       76.68918       52.70824
O         66.91278       75.52350       53.38483
O         66.79603       77.73717       53.31305
H         66.84998       76.89439       47.85323
H         68.56301       75.83340       48.91294
H         68.20051       74.79766       51.12186
H         66.42806       74.73167       50.86245
H         66.32784       77.22885       50.74600
H         68.11334       77.30825       51.01909
N         67.87065       73.76596       47.17605
C         67.93501       72.46276       46.55527
H         68.03824       72.57480       45.45531
H         68.80877       71.90004       46.94505
H         67.00176       71.89774       46.76713
H         67.93408       74.60004       46.57210
Ca        64.45293       76.18780       54.86713
O         65.34119       73.48300       55.76899
H         65.51013       72.80542       56.47034
H         65.08840       72.95795       54.96841
O         64.15853       74.30318       52.27815
H         63.80182       74.18572       51.36362
H         63.44558       74.79955       52.74785
O         67.06871       76.30355       56.51076
H         66.96792       76.47681       57.48008
H         68.03960       76.15844       56.38474
O         64.81222       78.85286       56.11206
H         65.54338       79.35644       56.54989
H         64.43682       79.48221       55.44625
O         64.35725       76.31935       58.09978
H         64.22621       75.36700       58.33722
H         63.90730       76.82334       58.82275

Ca 1.0



