%chk=apoCaM-CA-Ng.loop2.water3.frame805.chk
%nprocshared=20
%mem=10GB
%nosave
#b3lyp/svp scf=(tight,noincore,xqc) Test 
#IOP(5/87=12) Density=Current Pop=(MK,readradii) iop(6/33=2) iop(6/42=6)

apoCaM-CA-Ng.loop2.water3.frame805 

   -2  1 
C         28.72407       94.35715       79.53302
C         28.43053       95.46997       80.49366
O         29.17331       95.64539       81.44914
H         29.64356       93.80991       79.83235
H         27.87256       93.64551       79.51646
H         28.87305       94.77374       78.51456
N         27.35381       96.27774       80.28576
C         27.00160       97.39049       81.15562
C         27.15621       98.67964       80.36929
O         26.19376       99.40812       80.16820
C         25.58233       97.16278       81.71722
C         25.18199       98.23226       82.69744
O         25.90843       98.43326       83.81389
O         24.19191       98.91576       82.49131
H         26.76158       96.10654       79.45767
H         27.69616       97.45129       82.02283
H         25.55857       96.18838       82.25179
H         24.85056       97.11530       80.88044
N         28.39114       99.01639       79.90247
C         28.68352      100.23695       79.15922
C         29.29165       99.89008       77.80322
O         29.64596       98.73534       77.60534
C         29.68085      101.04624       80.00157
H         29.17804       98.37969       80.10747
H         27.75608      100.82638       79.00989
H         29.23376      101.27292       80.99237
H         30.60767      100.45330       80.16450
H         29.97596      102.00284       79.54173
N         29.48936      100.80014       76.80130
C         28.99542      102.17964       76.77058
C         27.48058      102.20381       76.60744
O         26.86190      101.14764       76.58014
C         29.69996      102.95718       75.62721
C         29.39735      102.43775       74.24683
O         28.26388      102.49185       73.79765
O         30.38896      101.94081       73.48555
H         29.99405      100.45855       75.96771
H         29.27509      102.71657       77.69169
H         30.79629      102.89938       75.80515
H         29.42945      104.03315       75.66220
N         26.81487      103.37901       76.42191
C         25.39403      103.40911       76.12845
C         24.55366      103.06612       77.33426
O         25.08929      102.95082       78.42811
H         27.33317      104.26893       76.40393
H         25.19327      102.71853       75.28343
H         25.10322      104.43460       75.81235
N         23.20138      102.93972       77.24566
C         22.45739      102.93044       75.98843
C         22.60811      101.55596       75.34151
O         22.28431      100.57977       76.00659
C         20.96559      103.21778       76.29355
C         20.07994      103.34211       75.07482
N         18.76369      103.61396       75.23171
O         20.53742      103.21027       73.94905
H         22.67810      102.79917       78.12561
H         22.80724      103.75548       75.32936
H         20.90332      104.18321       76.84303
H         20.55654      102.42117       76.95355
H         18.36048      103.73374       76.17291
H         18.14555      103.70792       74.41230
N         23.05456      101.38094       74.05830
C         23.11672      100.03818       73.48658
C         23.47045       99.99299       72.01058
O         22.63071       99.56774       71.22974
H         23.30154      102.20160       73.48450
H         22.10971       99.57726       73.59869
H         23.84324       99.41935       74.05686
N         24.70150      100.36329       71.55563
C         25.09552      100.29774       70.14287
C         26.31770       99.36696       69.91146
O         27.10412       99.17854       71.04881
C         25.43684      101.70519       69.61429
C         24.21445      102.62813       69.64253
O         26.47808      102.26691       70.36971
H         25.38876      100.71415       72.23778
H         24.26394       99.92375       69.50510
H         25.75912      101.59169       68.55088
H         26.86998      102.99172       69.81669
H         23.39381      102.19366       69.03207
H         23.85478      102.77772       70.68195
H         24.48158      103.61624       69.21174
N         26.02149       98.11528       69.20659
C         27.21056       97.27723       68.90811
C         28.21219       97.96416       67.96498
O         27.83225       98.30302       66.85243
C         26.73299       95.93747       68.25226
C         27.93408       94.99175       67.95919
C         25.68740       95.24191       69.14710
C         27.55126       93.72066       67.19589
H         25.54241       98.35247       68.30611
H         27.71627       97.01476       69.86379
H         26.23803       96.18227       67.28474
H         28.43862       94.71233       68.90951
H         28.67368       95.51728       67.31930
H         25.27860       94.33522       68.65874
H         26.13379       94.96130       70.12407
H         24.81700       95.90640       69.32818
H         26.87369       93.07327       67.78666
H         27.06577       93.98266       66.23136
H         28.46807       93.13228       66.97928
N         29.53286       98.09648       68.31452
C         30.58126       98.51667       67.37676
C         31.62454       97.40920       67.13221
O         32.47597       97.63249       66.28099
C         31.35279       99.77893       67.86372
C         30.63858      101.10019       67.71264
O         31.03387      101.89554       66.87445
O         29.64055      101.48205       68.52295
H         29.82042       97.81386       69.26307
H         30.14499       98.73800       66.37802
H         32.24817       99.88312       67.21117
H         31.73383       99.64696       68.89941
N         31.68772       96.23823       67.84126
C         32.80258       95.29969       67.67295
C         32.81705       94.24224       68.77699
O         31.89949       93.43345       68.82566
C         32.78601       94.56334       66.30545
C         33.91349       93.54284       66.26635
C         33.62143       92.16617       66.29093
C         35.25834       93.95450       66.28420
C         34.65321       91.22431       66.35413
C         36.28731       93.00783       66.34248
C         35.98468       91.64458       66.38386
H         31.00345       96.05548       68.58783
H         33.73679       95.89093       67.72577
H         32.87789       95.26245       65.44838
H         31.80674       94.04461       66.20973
H         32.59538       91.82062       66.29417
H         35.50997       95.00718       66.27319
H         34.41969       90.16794       66.39487
H         37.32003       93.33100       66.37006
H         36.78134       90.91372       66.44426
N         33.86176       94.13818       69.66090
C         34.02879       93.04426       70.61067
C         33.10119       93.14463       71.81033
O         33.26494       92.35970       72.73469
C         35.50433       93.17829       71.01716
C         35.69953       94.67598       71.01122
C         34.97784       95.06554       69.72846
H         33.90067       92.04783       70.13249
H         35.79384       92.65555       71.95348
H         36.13341       92.77398       70.18968
H         35.13392       95.08900       71.87791
H         36.75010       95.03103       71.06989
H         34.65722       96.12712       69.81321
H         35.62231       94.91992       68.83640
N         32.11106       94.07784       71.87820
C         31.25839       94.25498       73.04523
C         30.34832       93.05843       73.31822
O         29.66487       93.08425       74.33309
C         30.42776       95.55211       72.90215
C         31.34205       96.78763       72.75678
C         30.55147       98.05406       72.71013
O         29.78918       98.40967       73.75878
O         30.62468       98.78571       71.73790
H         31.98135       94.72198       71.09251
H         31.91764       94.38471       73.93243
H         29.80575       95.67981       73.81488
H         29.74946       95.47650       72.02170
H         31.95124       96.72646       71.83084
H         32.03637       96.84437       73.62091
N         30.28671       91.97014       72.49547
C         29.46309       90.82151       72.80911
H         28.39544       91.11961       72.86730
H         29.57701       90.04503       72.02265
H         29.78008       90.38367       73.78056
H         30.83678       91.93003       71.62717
Ca        28.82860      100.32408       70.23128
O         29.33883      103.69070       71.02009
H         29.20065      103.82278       70.04898
H         29.98789      104.39321       71.27530
O         27.33342       99.64505       73.98699
H         26.98970       98.80791       74.38731
H         26.62451      100.31240       74.15780
O         32.20872      101.59308       71.11574
H         32.55894      100.75114       71.50124
H         32.51103      102.29641       71.74384

Ca 1.0



