%chk=apoCaM-CA-Ng.loop2.water3.frame403.chk
%nprocshared=20
%mem=10GB
%nosave
#b3lyp/svp scf=(tight,noincore,xqc) Test 
#IOP(5/87=12) Density=Current Pop=(MK,readradii) iop(6/33=2) iop(6/42=6)

apoCaM-CA-Ng.loop2.water3.frame403 

   -2  1 
C        -15.50219       85.61128       16.72262
C        -16.97501       85.33338       16.75412
O        -17.61294       85.37731       15.71164
H        -15.26533       86.46376       17.39369
H        -14.95077       84.71101       17.06517
H        -15.17048       85.86541       15.69300
N        -17.58899       85.06460       17.93990
C        -19.01372       84.79069       18.06341
C        -19.67147       85.97225       18.74500
O        -19.28165       86.32745       19.84910
C        -19.22805       83.47535       18.84207
C        -20.67200       83.04466       18.94658
O        -21.57167       83.69587       18.43820
O        -20.97309       81.90905       19.60397
H        -17.02278       85.08994       18.80291
H        -19.46721       84.65693       17.05626
H        -18.81282       83.58105       19.86790
H        -18.67472       82.66151       18.32549
N        -20.67609       86.64013       18.11229
C        -21.32581       87.83319       18.63651
C        -21.16048       88.97921       17.64840
O        -20.50327       88.80302       16.63058
C        -22.79925       87.51537       18.90411
H        -21.00111       86.29155       17.19650
H        -20.87021       88.14745       19.60123
H        -23.32350       88.38948       19.34209
H        -23.31538       87.21220       17.96954
H        -22.86751       86.68548       19.64033
N        -21.73548       90.19219       17.88400
C        -21.55190       91.34729       17.01495
C        -22.82840       91.65087       16.26380
O        -23.39620       92.72656       16.39875
C        -21.03967       92.53914       17.84628
C        -19.67050       92.25077       18.38004
O        -18.68736       92.04108       17.49414
O        -19.44158       92.22987       19.57822
H        -22.32568       90.31523       18.71945
H        -20.80005       91.14308       16.21764
H        -21.74922       92.76363       18.67068
H        -20.95346       93.43701       17.19497
N        -23.27958       90.73867       15.36020
C        -24.37883       90.97693       14.44475
C        -24.08666       92.16509       13.55727
O        -24.95175       93.01513       13.40209
H        -22.77142       89.84605       15.26051
H        -25.33565       91.11220       14.99509
H        -24.48099       90.08371       13.79105
N        -22.85505       92.30723       12.98396
C        -22.48197       93.43369       12.13427
C        -21.88368       92.97466       10.79928
O        -21.62404       93.82621        9.95972
C        -21.48809       94.31444       12.91901
C        -21.12354       95.58603       12.19349
N        -19.83793       95.84718       11.86119
O        -21.99828       96.39041       11.90770
H        -22.12648       91.61795       13.22315
H        -23.38333       94.04636       11.90954
H        -20.57681       93.71840       13.14418
H        -21.95204       94.60335       13.88797
H        -19.08583       95.18252       12.09401
H        -19.59250       96.71769       11.36699
N        -21.63627       91.65944       10.52001
C        -21.08671       91.19327        9.25689
C        -19.67480       91.67299        8.97356
O        -19.09765       92.42508        9.74676
H        -21.86657       90.92850       11.20488
H        -21.75720       91.50669        8.42781
H        -21.05819       90.08191        9.27448
N        -19.06550       91.24783        7.83012
C        -17.73330       91.67193        7.38751
C        -16.58388       91.18261        8.27723
O        -15.44754       91.52283        7.97104
C        -17.47880       91.22498        5.91481
C        -17.37277       89.69849        5.72559
O        -18.44910       91.77723        5.05610
H        -19.61914       90.63192        7.21774
H        -17.71708       92.78452        7.38473
H        -16.50028       91.64195        5.59040
H        -19.26002       91.20594        5.07955
H        -18.30296       89.17836        6.03412
H        -17.17999       89.46642        4.65707
H        -16.52442       89.29634        6.31329
N        -16.77576       90.38810        9.36918
C        -15.69091       89.84965       10.18714
C        -15.71691       90.48369       11.56157
O        -16.78689       90.62831       12.14141
C        -15.81713       88.29628       10.26632
C        -15.68157       87.62283        8.87591
C        -14.82013       87.66928       11.25993
C        -14.32224       87.81932        8.18913
H        -17.73190       90.12431        9.64492
H        -14.69755       90.09142        9.75581
H        -16.83369       88.05148       10.64954
H        -16.47860       88.00439        8.20765
H        -15.85096       86.53033        8.99279
H        -13.77084       87.91980       11.00333
H        -15.02293       88.02809       12.28622
H        -14.94053       86.56536       11.28086
H        -13.49718       87.40395        8.80346
H        -14.32057       87.28374        7.21751
H        -14.12059       88.88896        7.98107
N        -14.53738       90.79008       12.18303
C        -14.45212       91.30173       13.54260
C        -13.49402       92.50238       13.65883
O        -13.29364       92.99078       14.75910
C        -14.04803       90.11818       14.45818
C        -14.40459       90.32514       15.90329
O        -14.33305       89.39317       16.68877
O        -14.93879       91.49198       16.29664
H        -13.65510       90.53422       11.71084
H        -15.46545       91.63120       13.86524
H        -12.98262       89.83803       14.32011
H        -14.67351       89.25075       14.16026
N        -12.88437       93.04856       12.55948
C        -11.97610       94.19589       12.62130
C        -10.68720       93.81878       13.35281
O        -10.04287       92.88248       12.90848
C        -11.61482       94.63716       11.18257
C        -10.77211       95.88843       11.15719
C        -11.31639       97.11718       11.56826
C         -9.43970       95.84136       10.71382
C        -10.53889       98.27820       11.53876
C         -8.66356       97.00399       10.69163
C         -9.21286       98.22149       11.10245
H        -13.09604       92.66598       11.62957
H        -12.51377       95.03153       13.11304
H        -12.53844       94.83195       10.59518
H        -11.08010       93.79835       10.68336
H        -12.34367       97.17651       11.90601
H         -8.99881       94.90552       10.39378
H        -10.96523       99.22195       11.85328
H         -7.63600       96.96090       10.35491
H         -8.61165       99.12102       11.08123
N        -10.20652       94.50646       14.43889
C         -8.97347       94.16607       15.14238
C         -8.95363       92.74621       15.67782
O         -7.98904       92.03668       15.42519
C         -8.91589       95.17926       16.29211
C         -9.57790       96.38140       15.66225
C        -10.76937       95.73463       14.95824
H         -8.11606       94.33650       14.45135
H         -9.57962       94.85972       17.12670
H         -7.89453       95.34901       16.69705
H         -9.83779       97.20474       16.35965
H         -8.88189       96.78000       14.88561
H        -11.59059       95.48597       15.66514
H        -11.11236       96.43807       14.17498
N         -9.99923       92.25554       16.40892
C        -10.02821       90.89528       16.95328
C         -9.90449       89.82333       15.87556
O         -9.62138       88.68493       16.22291
C        -11.33799       90.64241       17.72592
C        -11.46711       91.46395       19.01343
C        -12.80974       91.22957       19.64565
O        -12.89948       90.66005       20.86216
O        -13.82744       91.56044       19.05980
H        -10.80484       92.87823       16.57615
H         -9.15867       90.77829       17.63775
H        -11.41539       89.56883       18.00953
H        -12.17115       90.88612       17.04050
H        -11.36010       92.55012       18.81425
H        -10.66541       91.14960       19.71560
N        -10.11102       90.09479       14.55934
C         -9.93390       89.10180       13.52438
H         -8.87875       88.75330       13.51851
H        -10.61269       88.24129       13.69744
H        -10.16237       89.54789       12.53267
H        -10.41489       91.02930       14.27651
Ca       -16.52760       91.61235       17.85367
O        -16.28557       91.63647       21.22278
H        -16.39864       91.09584       22.04449
H        -15.39539       92.05749       21.32499
O        -17.54524       88.85523       16.87461
H        -18.06758       88.12538       17.29183
H        -17.53780       88.63488       15.90965
O        -16.24213       88.49943       20.01370
H        -16.01306       87.79922       20.67513
H        -17.06077       88.16138       19.57215

Ca 1.0



