%chk=apoCaM-CA-Ng.loop1.water1.frame860.chk
%nprocshared=20
%mem=10GB
%nosave
#b3lyp/svp scf=(tight,noincore,xqc) Test 
#IOP(5/87=12) Density=Current Pop=(MK,readradii) iop(6/33=2) iop(6/42=6)

apoCaM-CA-Ng.loop1.water1.frame860 

   0  1 
C         51.25906       46.53375       97.09225
C         49.95236       46.99893       96.52457
O         49.50704       46.44774       95.52722
H         51.98616       47.37297       97.08575
H         51.11086       46.18266       98.13407
H         51.67532       45.69958       96.48704
N         49.27771       48.02888       97.11240
C         48.01199       48.54328       96.58777
C         48.16906       49.01643       95.14638
O         49.28516       49.27693       94.71750
C         47.39849       49.60524       97.52442
C         48.34005       50.72918       97.85764
O         48.77791       51.45181       96.98165
O         48.71144       50.93584       99.13673
H         49.68497       48.44948       97.96166
H         47.29675       47.69090       96.56421
H         47.13047       49.10080       98.47892
H         46.46385       50.01048       97.08117
N         47.11073       48.92798       94.28633
C         47.30494       48.94122       92.83820
C         47.73302       50.26709       92.24313
O         48.05310       50.25704       91.06134
C         46.07380       48.38290       92.08843
C         44.86243       49.32909       92.05053
C         43.70772       48.67035       91.28387
C         42.51974       49.62483       91.11754
N         41.42109       48.96559       90.41109
H         46.19320       48.64580       94.66395
H         48.12347       48.21238       92.63684
H         45.78885       47.40996       92.54595
H         46.37284       48.17972       91.03534
H         45.15095       50.26681       91.52705
H         44.53228       49.58206       93.08047
H         43.38204       47.76003       91.83326
H         44.05808       48.36873       90.27157
H         42.84438       50.51752       90.53893
H         42.16431       49.96511       92.11450
H         41.74105       48.63000       89.47319
H         41.07135       48.15565       90.97318
H         40.63980       49.64711       90.27721
N         47.75117       51.44432       92.93994
C         48.17883       52.67869       92.28979
C         49.62416       52.51776       91.71131
O         50.53913       51.70431       92.40097
C         47.74512       53.97747       93.05804
C         48.01896       54.33310       94.51585
O         47.44068       55.30735       94.97142
O         48.82958       53.65163       95.34203
H         47.44056       51.47024       93.92207
H         47.55710       52.78345       91.37710
H         46.63222       53.93783       93.02438
H         48.04907       54.85162       92.44243
N         50.25530       53.66016       91.04100
C         49.64827       54.05549       89.74860
C         48.74027       53.02753       89.08713
O         49.16000       51.90283       88.85433
H         51.24171       53.37359       90.83446
H         50.46262       54.30072       89.03016
H         49.08883       54.99980       89.91130
N         47.47658       53.39100       88.72513
C         46.49716       52.51073       88.10076
C         46.35067       52.91221       86.65233
O         46.09661       54.07756       86.37480
C         45.15620       52.63599       88.84916
C         44.06738       51.82129       88.20616
O         42.96226       52.43109       87.73478
O         44.17890       50.61036       88.10350
H         47.19710       54.37452       88.86471
H         46.82900       51.44925       88.14569
H         44.83981       53.70290       88.85987
H         45.28707       52.30462       89.90140
N         46.52789       51.99056       85.66141
C         46.53437       52.36016       84.25956
C         47.76507       53.17022       83.89986
O         47.84312       53.62837       82.77049
H         46.68342       51.00008       85.90403
H         45.60545       52.92436       84.02667
H         46.55004       51.44530       83.62774
N         48.79087       53.34012       84.78981
C         50.01137       54.07146       84.48988
C         50.23900       55.18003       85.50756
O         49.51917       55.28352       86.48918
C         51.21897       53.08891       84.45462
C         51.42180       52.28920       85.75748
O         51.10135       52.20754       83.36539
H         48.74137       52.90445       85.71829
H         49.93737       54.55777       83.49286
H         52.14422       53.67976       84.28649
H         50.32301       51.61489       83.53339
H         51.52704       52.96044       86.63226
H         50.56966       51.60443       85.94829
H         52.33877       51.66859       85.67521
N         51.25921       56.05598       85.29952
C         51.65766       57.11022       86.22500
C         51.39673       58.46231       85.59120
O         50.78158       59.29663       86.24517
C         53.15743       56.91381       86.59935
C         53.32895       55.55332       87.32575
C         53.67200       58.07266       87.47878
C         54.78088       55.15229       87.57814
H         51.80812       55.95340       84.43455
H         51.06932       57.06698       87.17030
H         53.75435       56.90280       85.66007
H         52.90238       54.75138       86.69525
H         52.77459       55.56736       88.29069
H         53.57679       59.04288       86.94800
H         53.10111       58.12817       88.42999
H         54.74901       57.95359       87.70997
H         55.32793       55.08660       86.61388
H         55.29566       55.86351       88.25271
H         54.80027       54.15243       88.06226
N         51.79469       58.74655       84.31813
C         51.58018       60.04560       83.69262
C         52.86660       60.54492       83.06077
O         53.78370       59.76477       82.82951
C         50.45131       59.95201       82.63304
C         49.11216       59.57686       83.28019
O         50.29768       61.18627       81.97968
H         52.23518       58.00586       83.75174
H         51.27529       60.79232       84.45995
H         50.73817       59.16784       81.89208
H         49.88308       60.99833       81.09693
H         49.17365       58.59279       83.78878
H         48.81694       60.35090       84.02193
H         48.32058       59.51612       82.50369
N         52.98562       61.86093       82.74497
C         54.12529       62.44030       82.05175
C         54.83613       63.41764       82.97479
O         56.01798       63.23554       83.22695
C         53.62123       63.06901       80.73012
C         54.75095       63.63671       79.87412
O         52.67793       64.07960       80.98774
H         52.21018       62.49163       83.00294
H         54.85782       61.64765       81.77342
H         53.14392       62.24016       80.15122
H         51.94383       63.97920       80.32700
H         55.48821       62.84135       79.63599
H         54.32996       64.02329       78.92132
H         55.26304       64.46867       80.39985
N         54.15927       64.45121       83.55114
C         54.75112       65.38338       84.50218
C         54.05513       65.27014       85.84037
O         52.87766       64.94186       85.89030
C         54.56328       66.82915       84.00488
C         55.47340       67.19016       82.82511
C         55.15280       68.57494       82.22681
C         55.13345       69.72125       83.25589
N         54.89978       71.00826       82.60146
H         53.15878       64.56953       83.34120
H         55.83353       65.18195       84.66321
H         54.81569       67.52473       84.83469
H         53.49403       66.97997       83.73385
H         55.36629       66.44098       82.01216
H         56.52715       67.16923       83.18130
H         54.15698       68.53246       81.73453
H         55.91555       68.79095       81.44723
H         56.09856       69.75802       83.80660
H         54.31341       69.55012       83.98763
H         55.69505       71.23255       81.96085
H         54.00500       70.98323       82.05992
H         54.83022       71.75530       83.33011
N         54.71178       65.66760       86.96796
C         54.04625       65.79861       88.25409
C         53.48941       64.46140       88.74615
O         52.28606       64.40379       88.95575
C         54.96914       66.49890       89.28454
C         54.24351       67.02083       90.53823
C         53.42380       68.25957       90.26362
O         53.75864       69.42222       90.85651
O         52.46012       68.22901       89.51626
H         55.69575       65.96671       86.88461
H         53.19745       66.48819       88.07978
H         55.47377       67.37196       88.81467
H         55.76989       65.81439       89.59983
H         55.02424       67.31053       91.27414
H         53.61965       66.22613       90.99950
N         54.22841       63.32339       88.92738
C         55.64934       63.18328       88.67981
H         56.24503       63.79067       89.38166
H         55.95261       62.12826       88.85319
H         55.89316       63.43754       87.62891
H         53.73173       62.47267       89.23626
Ca        50.23412       52.20413       94.52161
O         52.30419       49.86803       94.49926
H         51.83021       49.44963       93.73721
H         53.25483       49.63059       94.35951

Ca 1.0



