%chk=apoCaM-CA-Ng.loop2.water4.frame793.chk
%nprocshared=20
%mem=10GB
%nosave
#b3lyp/svp scf=(tight,noincore,xqc) Test 
#IOP(5/87=12) Density=Current Pop=(MK,readradii) iop(6/33=2) iop(6/42=6)

apoCaM-CA-Ng.loop2.water4.frame793 

   -2  1 
C         18.97880      -11.03358       88.46528
C         19.17825      -12.11937       89.47479
O         20.04637      -12.95552       89.26394
H         18.16706      -10.34250       88.77080
H         19.92105      -10.45797       88.35035
H         18.71093      -11.49214       87.48990
N         18.40879      -12.18240       90.60039
C         18.57484      -13.24468       91.57698
C         19.64925      -12.83459       92.56335
O         19.41187      -11.98863       93.41540
C         17.21727      -13.62017       92.20537
C         17.30499      -14.81428       93.11349
O         17.71089      -15.88381       92.68654
O         16.89774      -14.72050       94.39336
H         17.68988      -11.46080       90.76432
H         18.91284      -14.15650       91.03636
H         16.51235      -13.87390       91.38271
H         16.79710      -12.75281       92.75988
N         20.89127      -13.38422       92.45339
C         22.02601      -13.01052       93.29088
C         22.56538      -11.64556       92.88903
O         22.30975      -11.25151       91.76114
C         23.12468      -14.06523       93.11376
H         21.04386      -14.08005       91.70755
H         21.68598      -13.00354       94.34592
H         22.74439      -15.04317       93.47864
H         23.38717      -14.17393       92.03699
H         24.04263      -13.80919       93.67412
N         23.34784      -10.85816       93.69589
C         23.79060      -11.18358       95.05087
C         23.29510      -10.17203       96.08054
O         23.62754       -8.99993       95.99687
C         25.32975      -11.34410       95.09603
C         26.16732      -10.15805       94.68628
O         27.16207       -9.73625       95.49077
O         26.02995       -9.64217       93.58933
H         23.66372       -9.96214       93.30341
H         23.39950      -12.17070       95.35000
H         25.59467      -12.17289       94.41225
H         25.62430      -11.64245       96.12665
N         22.52474      -10.59021       97.12549
C         22.18601       -9.73886       98.25873
C         20.97738      -10.27047       98.99430
O         20.94682      -11.46602       99.25287
H         22.33089      -11.60029       97.20458
H         22.08223       -8.67985       97.96429
H         23.03499       -9.79382       98.97148
N         19.95575       -9.49010       99.44794
C         19.85564       -8.03104       99.35530
C         19.66256       -7.57699       97.91685
O         18.75083       -8.05354       97.25471
C         18.69562       -7.56399      100.26251
C         19.04135       -7.87831      101.70500
N         18.37393       -8.83209      102.39564
O         19.96602       -7.28498      102.24147
H         19.21537       -9.98717       99.97064
H         20.78166       -7.56623       99.76171
H         17.76281       -8.08726       99.95531
H         18.51841       -6.47017      100.17449
H         17.61422       -9.37154      101.95730
H         18.64565       -9.05858      103.36468
N         20.51763       -6.66021       97.36823
C         20.54308       -6.33728       95.95143
C         21.12910       -4.95869       95.69404
O         20.44880       -3.97753       95.95815
H         21.29099       -6.30140       97.94772
H         19.53240       -6.40692       95.48832
H         21.17043       -7.10650       95.46143
N         22.39642       -4.81241       95.18962
C         22.98840       -3.51953       94.81569
C         23.57758       -3.59214       93.40830
O         23.91165       -4.67988       92.95984
C         24.06972       -3.04758       95.81864
C         23.51754       -2.96006       97.24292
O         25.17496       -3.90750       95.80159
H         22.96810       -5.65906       95.07134
H         22.19166       -2.74352       94.81695
H         24.39590       -2.03130       95.49556
H         25.92869       -3.42522       96.23302
H         24.30293       -2.56859       97.92367
H         22.64498       -2.27557       97.27518
H         23.21197       -3.96565       97.60385
N         23.73319       -2.46653       92.64880
C         24.12517       -2.51864       91.23764
C         25.63469       -2.38623       91.02817
O         26.21885       -1.38394       91.41351
C         23.31502       -1.48877       90.38622
C         23.78965       -1.48568       88.90109
C         21.81114       -1.82457       90.48579
C         23.07373       -0.47727       88.00611
H         23.39423       -1.57178       93.03499
H         23.81979       -3.49401       90.83971
H         23.48884       -0.46804       90.79229
H         23.66228       -2.47678       88.43710
H         24.86904       -1.22670       88.86982
H         21.61856       -2.85514       90.11610
H         21.46080       -1.76155       91.53633
H         21.19232       -1.11799       89.90009
H         23.56147       -0.47093       87.00753
H         22.01281       -0.76125       87.85293
H         23.13537        0.54088       88.44181
N         26.30308       -3.37097       90.34768
C         27.69523       -3.32362       89.90624
C         27.87394       -3.78683       88.42487
O         29.00186       -3.74048       87.95500
C         28.56728       -4.11358       90.91587
C         28.12136       -5.52725       91.07304
O         28.14834       -6.27963       90.11648
O         27.58586       -5.92566       92.24565
H         25.79365       -4.22583       90.12761
H         28.06259       -2.27595       89.95874
H         28.45721       -3.61988       91.90704
H         29.63914       -4.08775       90.63374
N         26.83305       -4.21548       87.62615
C         26.93122       -4.50311       86.18789
C         25.82332       -5.47795       85.71316
O         25.01292       -5.09459       84.88154
C         26.92475       -3.14357       85.44138
C         27.07589       -3.17169       83.93088
C         28.05309       -3.96328       83.29862
C         26.27149       -2.32756       83.13902
C         28.21907       -3.90943       81.90961
C         26.45656       -2.26205       81.75377
C         27.42985       -3.05198       81.13965
H         25.89247       -4.20113       87.99939
H         27.90127       -4.99346       85.97018
H         27.79297       -2.56834       85.82224
H         26.00834       -2.57436       85.71785
H         28.69093       -4.62131       83.87074
H         25.52281       -1.69076       83.59401
H         28.97145       -4.52235       81.43027
H         25.85371       -1.58859       81.15699
H         27.57682       -2.99478       80.06817
N         25.76425       -6.78369       86.14856
C         24.84282       -7.81737       85.64071
C         23.34772       -7.56619       85.81202
O         22.54516       -8.31496       85.27121
C         25.19640       -9.04520       86.49385
C         26.67025       -8.84555       86.74266
C         26.73655       -7.35566       87.05334
H         25.08147       -7.96124       84.56403
H         24.70627       -8.95207       87.49349
H         24.90644      -10.02241       86.05320
H         27.11767       -9.49311       87.52499
H         27.19472       -9.02854       85.77739
H         26.42297       -7.11429       88.09117
H         27.77734       -7.02106       86.86846
N         22.91729       -6.58985       86.64217
C         21.52328       -6.28876       86.93946
C         20.95803       -5.50934       85.77264
O         19.86058       -5.79655       85.31715
C         21.33440       -5.51027       88.27799
C         22.10892       -6.12694       89.47053
C         23.51961       -5.66675       89.52340
O         24.34367       -6.15005       90.45521
O         23.89440       -4.76124       88.80825
H         23.64433       -6.04769       87.07803
H         20.97220       -7.24339       87.10412
H         20.25282       -5.55617       88.52674
H         21.58666       -4.43165       88.18436
H         22.06720       -7.23503       89.43412
H         21.68938       -5.78120       90.43810
N         21.73560       -4.55918       85.17504
C         21.35764       -3.86116       83.96903
H         20.48647       -3.20434       84.15912
H         22.21295       -3.23955       83.62123
H         21.12296       -4.59299       83.16646
H         22.67245       -4.36139       85.55512
Ca        25.65911       -6.99969       92.02410
O         23.79597       -8.96802       90.92445
H         24.16490       -9.13277       90.02339
H         22.82385       -9.09859       90.81071
O         22.67654       -7.56622       93.27144
H         21.96466       -8.22048       93.48350
H         23.34835       -7.69319       93.98504
O         25.72345       -7.02542       94.92666
H         25.92498       -7.37476       95.82863
H         25.39768       -6.11116       95.08900
O         26.58484       -8.96401       90.36908
H         27.25288       -8.41110       89.90479
H         26.85687       -9.89006       90.16902

Ca 1.0



