%chk=apoCaM-CA-Ng.loop2.water3.frame1146.chk
%nprocshared=20
%mem=10GB
%nosave
#b3lyp/svp scf=(tight,noincore,xqc) Test 
#IOP(5/87=12) Density=Current Pop=(MK,readradii) iop(6/33=2) iop(6/42=6)

apoCaM-CA-Ng.loop2.water3.frame1146 

   -2  1 
C         92.93768       56.79027       97.25703
C         92.73262       56.20373       98.63070
O         92.08332       55.17286       98.72748
H         94.02400       56.82932       97.02570
H         92.44920       56.16063       96.48270
H         92.50640       57.81034       97.19883
N         93.27930       56.75079       99.75682
C         94.09774       57.95903       99.76994
C         93.63706       58.96882      100.81176
O         92.69680       58.70028      101.54390
C         95.58946       57.56706       99.81948
C         96.12995       56.62274      100.87574
O         97.26002       56.19648      100.69900
O         95.47612       56.19277      101.97818
H         93.15601       56.24033      100.64366
H         93.98616       58.50366       98.80971
H         96.22678       58.47543       99.79235
H         95.76174       57.03361       98.85770
N         94.22992       60.20207      100.87022
C         93.83637       61.30230      101.75524
C         94.09014       61.04917      103.23496
O         93.78729       61.93502      104.02264
C         92.36368       61.68647      101.52909
H         94.98872       60.40410      100.20251
H         94.44981       62.18933      101.48160
H         92.11037       62.59626      102.11498
H         92.18440       61.90584      100.45633
H         91.67270       60.88186      101.85424
N         94.63911       59.89160      103.69933
C         94.78555       59.60111      105.12605
C         95.51920       58.28879      105.38588
O         95.92766       57.61336      104.45329
C         93.39323       59.60750      105.83123
C         92.18630       59.03952      105.09955
O         92.14042       57.82632      104.50669
O         91.16057       59.70177      105.10239
H         94.94219       59.18601      103.01835
H         95.42273       60.37525      105.60799
H         93.13824       60.66603      106.05459
H         93.44767       59.14381      106.83425
N         95.70723       57.85714      106.66812
C         96.20684       56.53118      106.97908
C         95.07974       55.73435      107.58583
O         95.30452       55.03448      108.56279
H         95.38990       58.43751      107.45851
H         97.07281       56.59824      107.67465
H         96.55216       56.00037      106.06989
N         93.81261       55.84773      107.07930
C         92.64592       55.19859      107.66211
C         91.96230       54.30288      106.63884
O         92.30029       54.34045      105.46263
C         91.63814       56.27871      108.13852
C         92.17870       57.26663      109.15098
N         91.39755       58.29015      109.56986
O         93.31372       57.16076      109.59051
H         93.64922       56.46692      106.27203
H         92.94958       54.56792      108.52552
H         90.74448       55.79145      108.58493
H         91.30625       56.86196      107.25139
H         90.43951       58.40406      109.20701
H         91.75301       58.97862      110.25031
N         90.97359       53.45815      107.04218
C         90.21195       52.62345      106.11613
C         89.26779       51.66618      106.84123
O         89.33383       51.57992      108.05946
H         90.76323       53.43052      108.05034
H         90.90191       52.01625      105.49008
H         89.62838       53.30427      105.45911
N         88.33584       50.89918      106.19901
C         88.05817       50.91478      104.76547
C         86.66554       51.48617      104.52548
O         85.95661       51.77004      105.48186
C         88.15827       49.48391      104.17540
C         89.55387       48.88363      104.34504
O         87.22579       48.63118      104.79229
H         87.73858       50.29284      106.78356
H         88.77833       51.57064      104.23403
H         87.96840       49.51738      103.07672
H         86.36513       48.73935      104.30861
H         89.57929       47.87111      103.88653
H         90.31236       49.51803      103.84035
H         89.81408       48.78609      105.42016
N         86.23299       51.72500      103.25284
C         84.93325       52.32362      102.93543
C         84.20939       51.53472      101.84620
O         84.88863       51.00832      100.97653
C         85.05751       53.82735      102.55553
C         85.70041       54.17424      101.18167
C         85.70949       54.62406      103.69917
C         87.17288       53.81487      100.97236
H         86.88441       51.50954      102.49274
H         84.31417       52.30326      103.85449
H         84.01774       54.20091      102.47868
H         85.61799       55.27600      101.05728
H         85.10785       53.71234      100.36330
H         86.76268       54.31575      103.86154
H         85.68658       55.71101      103.47380
H         85.14871       54.46302      104.64529
H         87.32056       52.72707      100.87951
H         87.51083       54.24224      100.00558
H         87.81325       54.23108      101.77651
N         82.84933       51.37508      101.78831
C         81.88103       51.88310      102.75941
C         80.57716       52.33419      102.09097
O         80.44169       52.21258      100.87923
C         81.62852       50.78009      103.81144
C         81.11381       49.49803      103.21082
O         80.03844       49.46906      102.63424
O         81.84152       48.36953      103.31560
H         82.48826       50.75632      101.04373
H         82.28336       52.76786      103.28752
H         80.91806       51.12970      104.58818
H         82.59271       50.56570      104.32178
N         79.55283       52.82925      102.84979
C         78.22430       53.15875      102.33237
C         77.84374       54.58750      102.73369
O         78.08798       54.93034      103.88611
C         77.21495       52.16522      102.95303
C         75.95632       52.03736      102.13009
C         74.72218       52.52786      102.58505
C         76.01857       51.38363      100.88426
C         73.57281       52.37275      101.79887
C         74.86800       51.21946      100.11067
C         73.64548       51.71590      100.56600
H         79.69644       52.91003      103.86856
H         78.20521       53.02286      101.23060
H         77.00611       52.45749      104.00627
H         77.65242       51.14321      102.99093
H         74.65023       53.03527      103.53813
H         76.95850       50.98552      100.52066
H         72.62282       52.75730      102.14568
H         74.92516       50.70363       99.16021
H         72.75508       51.58815       99.96365
N         77.21202       55.47967      101.90814
C         76.72534       55.19667      100.56698
C         77.83576       55.19568       99.54015
O         77.58393       54.76699       98.42131
C         75.72223       56.33205      100.31987
C         76.38096       57.49252      101.04020
C         76.85643       56.82242      102.32646
H         76.18318       54.23111      100.52976
H         75.45318       56.51130       99.25681
H         74.78753       56.10373      100.88257
H         77.27375       57.79014      100.44391
H         75.75168       58.39381      101.19859
H         77.72033       57.38903      102.73996
H         76.04678       56.75151      103.08580
N         79.07810       55.67206       99.83311
C         80.18327       55.63613       98.89351
C         79.81993       56.43882       97.64435
O         79.67491       57.64635       97.77821
C         81.50832       56.20676       99.48443
C         82.04415       55.49853      100.75014
C         81.48255       55.96681      102.07675
O         80.77326       56.95659      102.16006
O         81.86093       55.34646      103.20893
H         79.23073       56.06703      100.75852
H         80.37818       54.57349       98.67830
H         81.45781       57.30250       99.66725
H         82.26748       56.04344       98.68744
H         83.13107       55.70744      100.82020
H         81.92382       54.40330      100.62638
N         79.63313       55.90465       96.39853
C         79.67431       54.50106       96.03066
H         78.69541       54.22059       95.58668
H         80.46509       54.34175       95.26968
H         79.85254       53.80655       96.86456
H         79.41141       56.55698       95.63007
Ca        93.69197       56.82513      103.21055
O         92.76172       53.60229      102.18184
H         91.80630       53.34258      102.16163
H         93.25108       52.74272      102.22406
O         90.84065       56.00690      102.20232
H         90.33517       56.26479      103.01339
H         90.26086       56.27930      101.44771
O         95.37356       54.23514      104.32993
H         95.41257       53.24627      104.33746
H         96.23223       54.51303      103.92261

Ca 1.0



