%chk=apoCaM-CA-Ng.loop3.water6.frame332.chk
%nprocshared=20
%mem=10GB
%nosave
#b3lyp/svp scf=(tight,noincore,xqc) Test 
#IOP(5/87=12) Density=Current Pop=(MK,readradii) iop(6/33=2) iop(6/42=6)

apoCaM-CA-Ng.loop3.water6.frame332 

   0  1 
C         64.84920       34.89926       63.53433
C         65.68189       34.03893       62.62825
O         65.40454       33.99696       61.43981
H         63.79419       34.55391       63.50494
H         65.20355       34.84595       64.58594
H         64.89779       35.95542       63.19779
N         66.72123       33.31404       63.13131
C         67.56776       32.40977       62.35545
C         66.73789       31.25964       61.79695
O         66.79355       30.96514       60.61061
C         68.36465       33.17017       61.27236
C         69.15097       34.30653       61.86635
O         70.08775       34.06741       62.80382
O         68.93992       35.45314       61.50372
H         66.92296       33.38457       64.14099
H         68.30144       31.95865       63.06179
H         67.67328       33.56941       60.49980
H         69.06878       32.47273       60.77039
N         65.91234       30.58063       62.64213
C         65.04779       29.45151       62.27462
C         64.02418       29.73755       61.16514
O         63.35488       28.80311       60.74626
C         64.33045       28.93734       63.55057
C         63.37535       29.98460       64.17241
C         62.91234       29.55904       65.57111
C         62.05129       30.65283       66.22198
N         61.69855       30.29550       67.59567
H         65.93561       30.87846       63.62853
H         65.71199       28.64154       61.90038
H         65.12402       28.68634       64.28926
H         63.76528       28.00373       63.33812
H         62.50331       30.14971       63.50304
H         63.89410       30.95663       64.29334
H         63.81200       29.40156       66.20653
H         62.34286       28.60638       65.51489
H         61.12548       30.80615       65.62475
H         62.61859       31.61107       66.23935
H         62.56626       30.18667       68.17045
H         61.11823       31.06028       68.01027
H         61.15163       29.40475       67.60950
N         63.84855       30.98015       60.63533
C         62.92560       31.29640       59.54357
C         63.29592       30.51932       58.27881
O         64.47269       30.44386       57.95203
C         62.97237       32.81746       59.29483
C         61.92432       33.30035       58.32975
O         60.98753       34.17977       58.71877
O         61.91792       32.92206       57.17527
H         64.39053       31.75497       61.03100
H         61.88858       31.04728       59.85943
H         63.98864       33.09295       58.94417
H         62.79224       33.33817       60.26056
N         62.33044       29.91932       57.51754
C         62.61278       29.06368       56.36586
C         63.37521       29.70271       55.20979
O         63.75400       28.96303       54.31159
H         61.34386       30.02654       57.79712
H         61.65851       28.65368       55.96709
H         63.21696       28.20711       56.73356
N         63.65995       31.03376       55.15596
C         64.53719       31.65114       54.16810
C         65.67774       32.31074       54.92941
O         66.80912       31.86190       54.82749
C         63.78020       32.69790       53.31241
C         62.76802       32.09787       52.37404
N         63.16066       31.29340       51.36093
O         61.58577       32.37540       52.49847
H         63.29046       31.64402       55.88424
H         64.97262       30.88302       53.49093
H         64.50520       33.26187       52.68880
H         63.26155       33.42285       53.97476
H         64.15678       31.07491       51.21770
H         62.46742       30.91068       50.70123
N         65.43277       33.39818       55.71450
C         66.44264       34.05116       56.53610
C         65.97190       35.42605       56.98989
O         66.71487       36.38665       56.83356
H         64.47910       33.77538       55.71786
H         67.38234       34.18644       55.95716
H         66.66117       33.39587       57.40698
N         64.72168       35.60355       57.49532
C         64.13916       36.88061       57.88159
C         62.99919       37.20544       56.93197
O         62.16178       36.33954       56.70245
C         63.61601       36.76428       59.32425
C         62.92895       38.03006       59.77094
C         63.64630       39.23275       59.87586
C         61.55709       38.01817       60.07313
C         63.00016       40.40547       60.27494
C         60.91315       39.19185       60.47026
C         61.63344       40.39059       60.57221
O         61.02362       41.53101       60.95166
H         64.10472       34.78605       57.56722
H         64.89122       37.69902       57.83763
H         64.45424       36.53270       60.01598
H         62.90211       35.91438       59.37211
H         64.70429       39.26295       59.64786
H         60.98239       37.10330       59.99316
H         63.56297       41.32699       60.35081
H         59.85428       39.16823       60.69422
H         60.07960       41.56236       61.16249
N         62.87693       38.43882       56.35583
C         61.82442       38.73101       55.38530
C         62.12936       38.01406       54.06669
O         61.21171       37.79859       53.29368
C         61.59002       40.26809       55.21414
C         61.25958       40.97183       56.56522
C         60.48981       40.58938       54.18100
C         59.97396       40.49883       57.25784
H         63.54937       39.17934       56.61395
H         60.87656       38.30445       55.78055
H         62.53260       40.72206       54.83550
H         61.16509       42.06505       56.38232
H         62.10014       40.83757       57.27655
H         60.77759       40.23840       53.17219
H         59.52317       40.11676       54.45384
H         60.34201       41.68804       54.10308
H         60.03431       39.42668       57.53285
H         59.82885       41.07833       58.19373
H         59.08272       40.66756       56.62011
N         63.39130       37.56266       53.77651
C         63.69023       36.73165       52.60917
C         63.47127       37.42594       51.27833
O         63.45449       36.72739       50.27113
C         65.14536       36.24510       52.65750
O         65.37902       35.56727       53.85581
H         64.15656       37.75879       54.43473
H         63.01768       35.84656       52.66046
H         65.82098       37.12890       52.59127
H         65.33946       35.55791       51.80400
H         66.35158       35.37374       53.87502
N         63.31002       38.77643       51.17401
C         63.04434       39.47526       49.92160
C         61.74907       38.95713       49.31704
O         61.70352       38.60785       48.14798
C         64.24197       39.36562       48.95802
H         63.34781       39.35483       52.02758
H         62.90249       40.55193       50.16058
H         64.05668       39.96287       48.04073
H         65.16108       39.74984       49.44893
H         64.42599       38.31487       48.65096
N         60.66771       38.80324       50.13233
C         59.42321       38.17595       49.72224
C         58.25115       38.96031       50.26241
O         58.20849       39.22437       51.45471
C         59.37052       36.75565       50.28374
H         60.77403       39.03874       51.12685
H         59.36222       38.07964       48.61592
H         59.42266       36.75817       51.39243
H         58.42623       36.26272       49.96529
H         60.22254       36.16522       49.88391
N         57.23273       39.32180       49.43524
C         56.03725       40.03460       49.86856
C         56.41687       41.41588       50.37338
O         56.03354       41.79721       51.47296
C         55.23431       39.22856       50.92746
C         54.96143       37.77666       50.50953
C         54.17443       37.06028       51.57126
O         53.08605       36.57539       51.30756
O         54.67106       36.94050       52.81852
H         57.29057       39.06410       48.43901
H         55.39045       40.16543       48.97190
H         54.26859       39.74922       51.11272
H         55.79239       39.20555       51.88796
H         55.92282       37.23551       50.37565
H         54.40720       37.75915       49.54695
N         57.21455       42.21651       49.61702
C         57.64086       43.52172       50.06960
H         58.32994       43.97370       49.32550
H         56.75947       44.18458       50.19625
H         58.17897       43.42945       51.03804
H         57.55679       41.87790       48.70446
Ca        59.55657       34.80121       57.09110
O         58.98022       31.80495       57.94190
H         58.78332       30.89552       57.60437
H         59.39778       31.65636       58.82718
O         57.24394       33.48447       55.56347
H         56.49287       34.12563       55.63247
H         57.63970       33.66331       54.67381
O         58.44637       36.75399       55.23848
H         58.13844       37.37816       55.94259
H         58.25319       37.21717       54.38571
O         60.12142       31.79023       55.01664
H         59.62447       32.24799       54.29355
H         59.63875       30.93563       55.14213
O         57.89080       35.67798       59.31847
H         57.15522       35.17927       58.88130
H         58.11481       36.40011       58.67848
O         60.80378       34.71559       53.99706
H         60.76069       35.52001       54.56927
H         60.19711       34.91399       53.24041

Ca 1.0



