%chk=apoCaM-CA-Ng.loop4.water6.frame1031.chk
%nprocshared=20
%mem=10GB
%nosave
#b3lyp/svp scf=(tight,noincore,xqc) Test 
#IOP(5/87=12) Density=Current Pop=(MK,readradii) iop(6/33=2) iop(6/42=6)

apoCaM-CA-Ng.loop4.water6.frame1031 

   -3  1 
C         17.28690       51.56672       34.73122
C         18.73438       51.25799       34.43922
O         19.52115       51.32189       35.37138
H         16.89470       50.84781       35.47920
H         17.21779       52.59375       35.14894
H         16.62927       51.53565       33.84554
N         19.20797       50.94801       33.19554
C         18.37321       50.81387       32.00639
C         17.51471       49.56883       32.10610
O         16.29824       49.69133       32.13132
C         19.23626       50.76211       30.72571
C         19.96180       52.05866       30.53773
O         19.26348       53.20284       30.40199
O         21.18244       52.09090       30.55570
H         20.22774       50.81932       33.09564
H         17.72364       51.71105       31.91280
H         18.59512       50.59658       29.83391
H         19.97070       49.93302       30.79656
N         18.08551       48.32970       32.11367
C         17.31397       47.09198       32.13645
C         17.27001       46.43782       30.76170
O         16.67840       45.37240       30.64967
C         17.80845       46.14094       33.27191
C         19.29728       45.69757       33.20518
C         17.55566       46.80395       34.63733
C         19.68455       44.90736       31.95623
H         19.10927       48.25625       32.02920
H         16.24343       47.30668       32.35224
H         17.17807       45.22375       33.24223
H         19.48651       45.02739       34.07297
H         19.97696       46.56978       33.30557
H         16.48269       47.07060       34.74692
H         17.81558       46.10527       35.46127
H         18.16550       47.72616       34.75023
H         19.64666       45.54234       31.05201
H         20.73152       44.55203       32.05693
H         19.02168       44.02439       31.83315
N         17.78994       47.04866       29.65273
C         17.65869       46.47878       28.31240
C         17.86353       47.54285       27.22911
O         18.28599       48.65350       27.52258
C         18.64065       45.28755       28.17058
C         18.52535       44.54601       26.87082
O         17.37483       43.92579       26.54635
O         19.47905       44.48659       26.11077
H         18.21514       47.97819       29.75720
H         16.60523       46.13973       28.19597
H         18.46054       44.55045       28.98007
H         19.67786       45.66615       28.28871
N         17.51011       47.27931       25.93940
C         17.63305       48.24652       24.86486
C         19.07653       48.59287       24.62169
O         19.86034       47.68809       24.37026
H         17.09887       46.36650       25.70293
H         17.03033       49.15038       25.10292
H         17.22513       47.80280       23.93138
N         19.49473       49.89038       24.66513
C         20.88250       50.28718       24.44211
C         20.99528       51.14848       23.18782
O         19.99186       51.71146       22.77192
C         21.43323       51.02595       25.68905
C         20.81630       52.38587       25.90892
O         21.51943       53.38420       25.88848
O         19.49731       52.51517       26.13763
H         18.79165       50.62058       24.84546
H         21.49339       49.37521       24.29840
H         22.52508       51.16840       25.59297
H         21.27161       50.39791       26.59104
N         22.16989       51.33978       22.51871
C         23.41690       50.64872       22.80841
C         23.35772       49.18501       22.40772
O         22.36691       48.79041       21.80770
H         22.17294       52.00019       21.72491
H         23.69804       50.78230       23.86461
H         24.19937       51.11370       22.17728
N         24.36949       48.29039       22.63614
C         25.59715       48.48778       23.41259
C         25.30328       48.57933       24.90671
O         24.14825       48.54425       25.30993
C         26.46890       49.67137       22.91674
C         26.75999       49.61392       21.41192
C         27.61868       50.78326       20.99905
N         28.84858       50.58903       20.46893
O         27.19738       51.92149       21.14549
H         24.24568       47.34433       22.24110
H         26.21051       47.56713       23.28703
H         27.44582       49.65647       23.44260
H         26.00811       50.63810       23.18392
H         25.81390       49.65238       20.83172
H         27.27269       48.65545       21.18054
H         29.22541       49.63935       20.33754
H         29.43008       51.39391       20.19159
N         26.33235       48.69881       25.79179
C         26.14849       48.83906       27.23140
C         25.71499       47.53499       27.88758
O         26.37142       46.51762       27.71801
C         27.42148       49.41193       27.93317
C         27.73026       50.82495       27.41042
C         28.67839       48.52858       27.82511
H         27.28610       48.75276       25.41478
H         25.36799       49.61288       27.41235
H         27.18545       49.51614       29.01613
H         26.84984       51.48800       27.55353
H         28.58091       51.26555       27.97203
H         27.98997       50.81000       26.33120
H         29.51451       48.99972       28.38465
H         28.51105       47.53414       28.27933
H         29.00431       48.39502       26.77427
N         24.66637       47.54456       28.75555
C         24.30077       46.42593       29.62380
C         24.64416       46.74538       31.08595
O         24.34239       45.93764       31.95380
C         22.80495       46.10475       29.42782
C         21.91157       47.28342       29.74059
N         21.18349       47.86955       28.76206
O         21.85483       47.71987       30.88079
H         24.16040       48.43332       28.89312
H         24.87737       45.51181       29.36092
H         22.50575       45.24039       30.05984
H         22.66554       45.80283       28.36708
H         21.22505       47.52718       27.79134
H         20.58453       48.67959       28.96848
N         25.29474       47.90114       31.42005
C         25.65011       48.31461       32.77965
C         26.16533       49.76311       32.79056
O         26.24731       50.38728       31.73989
C         26.66666       47.35264       33.44853
C         27.98870       47.25073       32.72591
C         29.13769       47.85807       33.26180
C         28.09583       46.52212       31.52948
C         30.36697       47.74761       32.60492
C         29.32729       46.40211       30.88210
C         30.46742       47.01746       31.41616
O         31.66170       46.90875       30.80049
H         25.53909       48.54012       30.65818
H         24.72211       48.31524       33.39357
H         26.24715       46.33243       33.57095
H         26.84114       47.71377       34.48336
H         29.08250       48.42348       34.18412
H         27.23563       46.02586       31.10474
H         31.24346       48.22553       33.02402
H         29.39390       45.82578       29.96810
H         31.77334       46.40437       29.98191
N         26.48813       50.38622       33.96024
C         26.82604       51.80536       34.02856
C         25.78776       52.45622       34.92195
O         26.10875       53.04360       35.94568
C         28.28047       51.96700       34.50737
C         28.78165       53.41389       34.37034
C         30.21560       53.52824       34.79818
O         31.08292       52.88657       34.22627
O         30.55421       54.35302       35.80710
H         26.43442       49.86312       34.84728
H         26.75438       52.27303       33.02201
H         28.92227       51.32788       33.86056
H         28.37825       51.60741       35.55556
H         28.16444       54.10007       34.98544
H         28.70367       53.73391       33.30797
N         24.47804       52.26651       34.61157
C         23.36901       52.62509       35.47771
C         22.84372       51.33814       36.08429
O         22.82995       51.23166       37.30275
C         22.28991       53.36921       34.67608
C         22.77079       54.75734       34.21408
C         21.74744       55.36545       33.30663
O         20.59341       55.50899       33.68098
O         22.07293       55.62919       32.02855
H         24.25751       51.72697       33.75980
H         23.69591       53.28017       36.31675
H         21.38539       53.50700       35.30929
H         22.00260       52.75093       33.79503
H         23.72177       54.65849       33.64777
H         22.94284       55.41354       35.09355
N         22.45840       50.29197       35.29631
C         22.05403       49.00350       35.82348
H         21.02811       48.76309       35.47775
H         22.75200       48.22414       35.44857
H         22.07297       48.97295       36.93335
H         22.48424       50.38839       34.27100
Ca        20.44273       55.09132       30.60976
O         18.62917       54.80390       27.89611
H         17.98018       54.05737       27.85236
H         19.50819       54.36388       28.01512
O         17.54668       56.46226       32.45499
H         17.67508       56.93249       33.31690
H         16.56972       56.31099       32.39884
O         17.78442       57.49357       29.12376
H         16.96102       57.60644       28.58569
H         18.41990       58.15035       28.74292
O         20.96001       56.98221       28.14969
H         21.82813       56.56708       27.91688
H         21.20108       57.79244       28.66524
O         20.10644       58.34614       31.49910
H         19.70560       58.98272       30.85541
H         21.03781       58.66245       31.61240
O         16.38624       54.05056       30.54752
H         16.22683       53.68401       31.45344
H         16.56263       53.25472       29.98537

Ca 1.0



