%chk=apoCaM-CA-Ng.loop3.water3.frame893.chk
%nprocshared=20
%mem=10GB
%nosave
#b3lyp/svp scf=(tight,noincore,xqc) Test 
#IOP(5/87=12) Density=Current Pop=(MK,readradii) iop(6/33=2) iop(6/42=6)

apoCaM-CA-Ng.loop3.water3.frame893 

   0  1 
C         23.28479      -13.58946        2.13839
C         23.17299      -13.84287        0.66802
O         22.14776      -13.51486        0.08871
H         24.12908      -12.89146        2.32081
H         22.35297      -13.12263        2.52488
H         23.46583      -14.54104        2.67765
N         24.20223      -14.42568       -0.00867
C         24.20029      -14.59884       -1.45743
C         24.14923      -16.08887       -1.79519
O         24.42787      -16.89835       -0.91893
C         25.47373      -13.89752       -2.00031
C         25.42255      -13.43645       -3.43083
O         25.71609      -12.16181       -3.72965
O         25.16699      -14.19713       -4.33603
H         25.03316      -14.73283        0.52233
H         23.29799      -14.11160       -1.87390
H         26.34905      -14.55838       -1.82419
H         25.65284      -12.97229       -1.40975
N         23.76956      -16.53039       -3.03090
C         23.74212      -17.94889       -3.40970
C         24.77265      -18.28150       -4.49016
O         25.04447      -19.45466       -4.69359
C         22.31372      -18.41583       -3.77359
C         21.63280      -17.57479       -4.86966
C         20.26523      -18.12573       -5.31277
C         19.23466      -18.23186       -4.17493
N         17.94269      -18.69238       -4.68495
H         23.48683      -15.82755       -3.72619
H         24.05913      -18.56655       -2.54090
H         21.69659      -18.35172       -2.85283
H         22.35608      -19.48159       -4.08815
H         22.28661      -17.54467       -5.76717
H         21.48503      -16.53857       -4.49866
H         20.40554      -19.12763       -5.77233
H         19.86444      -17.43990       -6.09180
H         19.10374      -17.23921       -3.68981
H         19.59004      -18.95585       -3.41064
H         17.27278      -18.78885       -3.88777
H         17.55784      -17.99949       -5.36737
H         18.04858      -19.62346       -5.15001
N         25.43315      -17.30094       -5.16550
C         26.59450      -17.50197       -6.02170
C         27.81316      -16.74621       -5.47643
O         28.87442      -16.90315       -6.05714
C         26.27614      -17.09021       -7.48037
C         25.56260      -15.76750       -7.59868
O         24.46727      -15.72038       -8.13481
O         26.08319      -14.64513       -7.07644
H         25.12926      -16.34035       -5.04625
H         26.89029      -18.57374       -6.03742
H         25.61199      -17.86497       -7.92116
H         27.21275      -17.07759       -8.07934
N         27.76765      -15.96471       -4.35403
C         28.91832      -15.28956       -3.76249
C         29.49275      -14.10260       -4.52962
O         30.42003      -13.50694       -3.99965
H         26.89378      -15.89687       -3.81996
H         29.71996      -16.03491       -3.57127
H         28.60419      -14.88454       -2.77525
N         29.03087      -13.68625       -5.74656
C         29.58964      -12.53781       -6.47179
C         28.51389      -11.50597       -6.78537
O         27.34288      -11.75784       -6.54526
C         30.21585      -12.99996       -7.81306
C         31.46053      -13.84154       -7.65759
N         31.41754      -15.06858       -7.09788
O         32.52632      -13.41212       -8.07281
H         28.26899      -14.20647       -6.19331
H         30.36951      -12.02459       -5.86877
H         30.51385      -12.10327       -8.39642
H         29.46074      -13.54940       -8.41875
H         30.53186      -15.45827       -6.77306
H         32.27012      -15.63975       -7.00814
N         28.85396      -10.32212       -7.38253
C         27.87267       -9.39072       -7.91738
C         26.92637       -8.81856       -6.89163
O         27.19921       -8.87072       -5.70056
H         29.84869      -10.10876       -7.54872
H         27.27912       -9.94431       -8.67138
H         28.37305       -8.55174       -8.44809
N         25.74079       -8.29142       -7.32035
C         24.69083       -7.77824       -6.43650
C         24.21750       -8.83912       -5.45236
O         24.73687       -9.94474       -5.47755
C         23.49903       -7.26584       -7.28797
C         23.88568       -6.07428       -8.13118
C         24.29135       -4.88158       -7.50826
C         23.83379       -6.13074       -9.53445
C         24.64630       -3.76837       -8.27179
C         24.19043       -5.01310      -10.29812
C         24.59813       -3.83017       -9.67081
O         24.93835       -2.76130      -10.41878
H         25.56670       -8.28868       -8.33818
H         25.10119       -6.94157       -5.83299
H         22.65609       -6.93928       -6.64567
H         23.12588       -8.10223       -7.92158
H         24.32922       -4.81101       -6.42865
H         23.52008       -7.03643      -10.03854
H         24.95659       -2.85878       -7.77328
H         24.14924       -5.06570      -11.37885
H         25.22448       -1.92642      -10.02072
N         23.25232       -8.54688       -4.52465
C         22.80865       -9.44843       -3.45980
C         22.19474      -10.72436       -4.04174
O         22.85909      -11.44336       -4.77116
C         23.96925       -9.68948       -2.44590
C         23.60365      -10.66907       -1.30025
C         24.47815       -8.35070       -1.87321
C         22.43832      -10.22753       -0.40991
H         22.82955       -7.60717       -4.53366
H         22.01230       -8.92368       -2.88923
H         24.82452      -10.13257       -2.97913
H         24.49863      -10.80648       -0.65365
H         23.35664      -11.65924       -1.73481
H         25.32174       -8.52532       -1.17179
H         24.85305       -7.69236       -2.68491
H         23.67272       -7.80599       -1.33910
H         22.28210      -10.97666        0.39154
H         22.64695       -9.25680        0.08052
H         21.49955      -10.15335       -0.99012
N         20.91584      -11.08279       -3.72832
C         20.27100      -12.26814       -4.29297
C         18.82366      -12.03448       -4.72503
O         18.24693      -12.95461       -5.29120
C         20.36972      -13.42964       -3.29628
O         19.69709      -13.13586       -2.10201
H         20.42439      -10.53975       -3.00698
H         20.81557      -12.58234       -5.20765
H         21.43934      -13.65849       -3.09611
H         19.93756      -14.35423       -3.73512
H         20.31675      -12.58563       -1.55563
N         18.15438      -10.86620       -4.49097
C         16.76509      -10.65780       -4.89716
C         16.64536      -10.58696       -6.41666
O         17.66709      -10.40377       -7.06470
C         16.27266       -9.33151       -4.29830
H         18.62157      -10.10288       -3.98566
H         16.15631      -11.48688       -4.48289
H         15.23834       -9.10412       -4.58748
H         16.32471       -9.37418       -3.18922
H         16.90542       -8.48909       -4.65187
N         15.45637      -10.65672       -7.09285
C         14.16345      -11.05682       -6.53148
C         13.02790      -10.67424       -7.47946
O         13.14645      -10.96178       -8.66317
C         14.12446      -12.57677       -6.34851
H         15.50450      -10.50464       -8.11303
H         14.00887      -10.61311       -5.54155
H         14.25755      -13.09143       -7.32393
H         14.91590      -12.92470       -5.65840
H         13.14129      -12.87272       -5.92068
N         11.86109      -10.08613       -7.07594
C         11.48871       -9.78150       -5.69699
C         12.38537       -8.71090       -5.11597
O         12.89220       -8.90238       -4.01962
C         10.00481       -9.35491       -5.62845
C          9.51130       -9.21691       -4.17722
C          8.04720       -8.88791       -4.12671
O          7.22596       -9.65706       -4.60119
O          7.63082       -7.75170       -3.53632
H         11.15787       -9.90181       -7.81031
H         11.56579      -10.71547       -5.09482
H          9.39855      -10.15014       -6.11806
H          9.84616       -8.40364       -6.18243
H         10.08337       -8.41845       -3.65882
H          9.67188      -10.17433       -3.63407
N         12.65046       -7.57334       -5.81666
C         13.56083       -6.54601       -5.35308
H         14.40642       -6.46224       -6.06888
H         13.03021       -5.57367       -5.30569
H         13.98120       -6.77102       -4.35027
H         12.22124       -7.44314       -6.74505
Ca        24.77882      -12.80022       -6.95117
O         25.76994      -12.38293       -9.63338
H         25.92663      -11.42147       -9.80311
H         24.86882      -12.55225      -10.00634
O         22.20882      -12.14364       -8.10304
H         21.33961      -11.71924       -7.89420
H         22.18074      -12.31498       -9.07768
O         22.38406      -14.46179       -5.98784
H         22.99253      -15.22759       -6.12834
H         21.63503      -14.62130       -6.61501

Ca 1.0



