%chk=apoCaM-CA-Ng.loop2.water4.frame1448.chk
%nprocshared=20
%mem=10GB
%nosave
#b3lyp/svp scf=(tight,noincore,xqc) Test 
#IOP(5/87=12) Density=Current Pop=(MK,readradii) iop(6/33=2) iop(6/42=6)

apoCaM-CA-Ng.loop2.water4.frame1448 

   -2  1 
C         52.55758       89.95562      120.24982
C         53.23635       89.53217      118.97605
O         54.29136       88.92037      119.05704
H         51.54913       89.49998      120.32188
H         53.15052       89.63742      121.13361
H         52.47422       91.06381      120.27183
N         52.74482       89.84316      117.74210
C         51.50712       90.58421      117.50556
C         51.77904       92.02667      117.10044
O         50.82202       92.76112      116.89830
C         50.60834       89.82866      116.49583
C         51.16456       89.67779      115.10088
O         52.35644       90.19479      114.75794
O         50.51456       89.07892      114.25956
H         53.31678       89.57445      116.92706
H         50.91880       90.65841      118.44185
H         49.63550       90.36019      116.41361
H         50.40874       88.81288      116.90067
N         53.05059       92.51822      117.01503
C         53.36836       93.90893      116.72093
C         54.15758       94.04188      115.42610
O         54.55790       95.15136      115.10142
C         54.16136       94.47739      117.90313
H         53.85283       91.89610      117.19160
H         52.44607       94.51985      116.61031
H         53.55814       94.39531      118.83325
H         55.11001       93.91586      118.04534
H         54.39841       95.54975      117.73858
N         54.38632       92.96726      114.61543
C         55.11579       93.02862      113.36183
C         54.14411       92.90987      112.13963
O         53.08547       92.00272      112.26063
C         56.39310       92.11544      113.41275
C         56.40762       90.81241      114.21759
O         55.64079       89.74828      113.92424
O         57.18540       90.71076      115.15317
H         54.00962       92.04685      114.86910
H         55.52643       94.04899      113.19085
H         57.16242       92.74075      113.92045
H         56.78010       91.94476      112.38721
N         54.85694       92.78721      110.85897
C         53.98180       92.93915      109.68391
C         53.41269       91.61934      109.21470
O         53.60054       90.60507      109.86395
H         55.54135       93.57902      110.82852
H         54.60556       93.31645      108.84324
H         53.17496       93.68514      109.86315
N         52.74462       91.55224      108.03226
C         52.26343       90.29656      107.47047
C         53.33038       89.73636      106.54827
O         53.74891       90.42867      105.63017
C         50.92574       90.53746      106.73964
C         50.27413       89.28326      106.19738
N         49.09560       89.37278      105.53962
O         50.79351       88.18723      106.35094
H         52.67707       92.40759      107.45832
H         52.05901       89.56755      108.28677
H         51.08843       91.24813      105.90020
H         50.21276       91.00119      107.45587
H         48.63921       90.28636      105.40166
H         48.63756       88.52760      105.16725
N         53.81779       88.47590      106.73819
C         54.85470       87.89773      105.89734
C         56.24021       88.25238      106.40304
O         56.34205       88.92004      107.42164
H         53.41674       87.88603      107.48360
H         54.69751       88.20808      104.84238
H         54.77216       86.78981      105.94208
N         57.38325       87.82777      105.78735
C         57.43689       87.10318      104.51989
C         58.00254       85.69582      104.66562
O         58.05807       85.00638      103.65668
C         58.29267       87.90980      103.51026
C         57.69065       89.29140      103.23093
O         59.59825       88.05534      104.01259
H         58.28264       88.07029      106.23352
H         56.42224       86.97622      104.09235
H         58.32169       87.34561      102.54858
H         60.18500       88.27685      103.24328
H         57.64355       89.90075      104.15817
H         58.31919       89.83072      102.49056
H         56.66758       89.18523      102.81277
N         58.44811       85.19667      105.85810
C         59.00016       83.85148      106.01182
C         58.20595       83.09839      107.08771
O         58.17710       83.57413      108.21368
C         60.51663       83.94397      106.36368
C         61.28496       84.54935      105.15396
C         61.08756       82.55535      106.72571
C         62.76550       84.82441      105.41821
H         58.42533       85.79095      106.69870
H         58.95880       83.30638      105.05410
H         60.63638       84.60562      107.25011
H         60.82914       85.52115      104.87172
H         61.19926       83.86532      104.27949
H         60.98571       81.85060      105.87344
H         62.15381       82.61979      107.01780
H         60.56080       82.12831      107.60411
H         63.22010       85.26995      104.50762
H         62.87528       85.54269      106.25711
H         63.32566       83.89606      105.64554
N         57.58384       81.89400      106.86844
C         57.54425       81.22399      105.57109
C         57.15236       79.75479      105.63403
O         56.65363       79.27204      106.64141
C         56.55175       81.95061      104.62169
C         55.13594       81.92037      105.14641
O         54.25465       81.37142      104.50446
O         54.83084       82.51045      106.31879
H         57.15324       81.42835      107.68229
H         58.57836       81.20821      105.16815
H         56.58010       81.47344      103.61822
H         56.82336       83.00974      104.48745
N         57.35703       78.99528      104.52031
C         56.90245       77.62679      104.33788
C         58.08102       76.69097      104.07724
O         58.86234       76.99757      103.18448
C         56.00457       77.60258      103.08228
C         55.46474       76.22009      102.83019
C         56.01840       75.41456      101.82031
C         54.42309       75.71615      103.62309
C         55.54127       74.11786      101.61647
C         53.93793       74.42420      103.40538
C         54.49954       73.62395      102.40615
H         57.83341       79.43676      103.71700
H         56.29784       77.29308      105.20236
H         56.61990       77.93106      102.21347
H         55.16162       78.32275      103.16342
H         56.83407       75.78060      101.20831
H         53.98724       76.32664      104.40439
H         55.98233       73.49544      100.84883
H         53.13012       74.04246      104.01517
H         54.12918       72.62052      102.24508
N         58.23510       75.48276      104.70835
C         57.38269       74.93053      105.75505
C         57.43625       75.75410      107.01674
O         56.39902       76.11216      107.55693
C         57.97440       73.53535      106.01530
C         58.53468       73.18056      104.65657
C         59.19966       74.49564      104.26649
H         56.34843       74.82004      105.36553
H         58.85326       73.60003      106.69661
H         57.25506       72.80855      106.44993
H         59.20951       72.29887      104.64205
H         57.67880       72.99558      103.96656
H         60.15011       74.64568      104.82555
H         59.38323       74.50904      103.17002
N         58.64747       76.11916      107.51628
C         58.81147       76.93555      108.70406
C         58.71193       76.03134      109.92772
O         59.58320       75.18327      110.06661
C         60.19582       77.62542      108.65973
C         60.31696       78.57211      107.44861
C         61.71260       79.10831      107.32142
O         62.25914       79.82727      108.31952
O         62.36005       78.89307      106.30854
H         59.49231       75.84129      106.99274
H         58.07365       77.75657      108.68367
H         60.98647       76.84416      108.59188
H         60.36088       78.20958      109.59157
H         59.60282       79.41623      107.55996
H         60.06622       78.03410      106.50853
N         57.72100       76.08777      110.86688
C         56.55488       76.94804      110.85233
H         55.64495       76.31106      110.86951
H         56.55678       77.58554      111.75986
H         56.47518       77.59768      109.96822
H         57.78177       75.43287      111.66260
Ca        54.09222       90.04401      112.43487
O         51.76985       87.73904      110.67056
H         51.00801       88.29071      110.36220
H         51.65111       86.87449      110.20302
O         55.50297       88.25815      110.38014
H         55.68947       89.11526      109.92254
H         56.06978       88.29002      111.19086
O         50.67328       90.73408      111.44807
H         49.81000       90.61053      111.91608
H         50.42873       91.09648      110.55977
O         54.09047       87.08039      113.27836
H         53.56722       86.24126      113.32078
H         54.67060       87.05335      114.08037

Ca 1.0



