%chk=apoCaM-CA-Ng.loop2.water4.frame1.chk
%nprocshared=20
%mem=10GB
%nosave
#b3lyp/svp scf=(tight,noincore,xqc) Test 
#IOP(5/87=12) Density=Current Pop=(MK,readradii) iop(6/33=2) iop(6/42=6)

apoCaM-CA-Ng.loop2.water4.frame1 

   -2  1 
C         58.52159       15.75605       69.91439
C         57.64858       16.81287       69.30234
O         56.72279       16.46427       68.58465
H         59.32365       16.20214       70.53886
H         57.90657       15.08486       70.54998
H         58.99561       15.15599       69.10876
N         57.87401       18.13664       69.54601
C         57.04756       19.19045       68.96097
C         57.22509       19.29706       67.44516
O         56.45257       20.00846       66.82008
C         57.36172       20.53913       69.64128
C         56.44062       21.64112       69.19608
O         55.11205       21.53110       69.38894
O         56.89226       22.64046       68.66039
H         58.63441       18.39538       70.19396
H         55.98866       18.93294       69.17789
H         58.41949       20.81653       69.43447
H         57.24062       20.42541       70.74036
N         58.21278       18.62188       66.78670
C         58.40472       18.62493       65.34195
C         57.20122       18.02986       64.62912
O         56.78050       18.55020       63.60431
C         58.78521       20.02290       64.82436
H         58.87610       18.04519       67.32247
H         59.26315       17.94945       65.12853
H         59.68564       20.39294       65.35848
H         59.01574       19.98347       63.73842
H         57.96068       20.75002       64.97628
N         56.59481       16.91573       65.13759
C         55.49890       16.19455       64.49825
C         54.23801       17.04318       64.26800
O         53.32624       16.55384       63.61535
C         56.03253       15.53767       63.20456
C         55.08846       14.50468       62.65317
O         54.74817       13.43688       63.40059
O         54.64381       14.61534       61.52257
H         56.95197       16.52459       66.02049
H         55.21151       15.35699       65.17397
H         56.97795       15.00173       63.44329
H         56.25650       16.31143       62.44028
N         54.08380       18.29904       64.79299
C         52.91161       19.13408       64.54901
C         51.60132       18.58083       65.09398
O         50.57433       19.19672       64.84733
H         54.82606       18.70821       65.37166
H         52.81248       19.27948       63.45115
H         53.07290       20.13406       65.00825
N         51.54403       17.42749       65.81723
C         50.29998       16.80727       66.26545
C         49.55693       17.66141       67.27813
O         50.14812       18.12681       68.24157
C         50.59050       15.41501       66.85108
C         51.11277       14.49434       65.77230
N         52.35134       13.96046       65.85114
O         50.40557       14.23469       64.80921
H         52.41992       16.93443       66.03349
H         49.63757       16.64302       65.38578
H         49.65432       14.96860       67.25133
H         51.32035       15.50964       67.68351
H         52.96801       14.17298       66.64638
H         52.69608       13.33864       65.10544
N         48.21824       17.86172       67.11752
C         47.37922       18.66624       67.98826
C         47.32250       18.17153       69.41688
O         47.01593       17.00846       69.64085
H         47.74901       17.41770       66.31311
H         46.34013       18.62262       67.59336
H         47.70657       19.72585       67.94701
N         47.51588       19.04997       70.44458
C         47.32471       18.69883       71.85112
C         48.35254       17.69586       72.35452
O         48.11243       17.09702       73.39222
C         47.32855       19.99067       72.71539
C         47.01459       19.76040       74.19838
O         48.57332       20.63338       72.59816
H         47.71852       20.03293       70.20509
H         46.31559       18.23476       71.93679
H         46.52081       20.64264       72.30293
H         48.40537       21.60985       72.66249
H         46.03821       19.24466       74.31310
H         47.80972       19.16625       74.69326
H         46.95991       20.73944       74.72032
N         49.53319       17.48959       71.70255
C         50.55343       16.56551       72.19145
C         50.84133       15.49799       71.15362
O         50.29317       15.53900       70.06416
C         51.84941       17.33637       72.59622
C         52.52647       18.03259       71.38509
C         51.53416       18.32911       73.73052
C         53.89297       18.63224       71.71857
H         49.73682       18.02483       70.84933
H         50.19225       16.03036       73.09669
H         52.57009       16.59650       73.00638
H         51.87315       18.83205       70.97708
H         52.70023       17.28285       70.58343
H         52.45601       18.80574       74.11868
H         50.84250       19.12403       73.38090
H         51.06245       17.79592       74.58328
H         54.57800       17.84284       72.09594
H         54.33013       19.07021       70.79986
H         53.81315       19.44388       72.46807
N         51.72072       14.50261       71.45282
C         52.13857       13.47373       70.51316
C         51.70611       12.11656       71.03718
O         51.01799       11.40102       70.31861
C         53.66456       13.57838       70.32967
C         54.17100       12.66070       69.25310
O         54.73493       13.12170       68.27425
O         54.01505       11.32868       69.36280
H         52.13662       14.48793       72.39367
H         51.67457       13.63916       69.51457
H         54.18854       13.35737       71.28427
H         53.91005       14.62625       70.04143
N         52.03063       11.71958       72.30094
C         51.60507       10.46243       72.89985
C         52.81480        9.74019       73.47911
O         53.50724       10.34315       74.29167
C         50.56813       10.74737       74.00333
C         50.11589        9.46387       74.65798
C         49.01617        8.74811       74.15500
C         50.82441        8.95123       75.75825
C         48.63654        7.53764       74.74552
C         50.44313        7.74258       76.34343
C         49.35060        7.03505       75.83738
H         52.57061       12.36451       72.89907
H         51.08875        9.83585       72.14366
H         49.69292       11.26090       73.54582
H         50.97852       11.43998       74.77059
H         48.46177        9.11979       73.30215
H         51.67842        9.48417       76.15674
H         47.79266        6.98508       74.35343
H         50.99931        7.35346       77.18625
H         49.05995        6.09631       76.29036
N         53.12357        8.44491       73.17053
C         54.26362        7.71342       73.70784
C         55.59187        8.42128       73.50647
O         56.36496        8.51153       74.44794
C         54.24418        6.39684       72.92361
C         52.76331        6.18490       72.72694
C         52.30468        7.58498       72.33456
H         54.08449        7.51779       74.79040
H         54.67561        6.54746       71.90758
H         54.78551        5.56408       73.42098
H         52.47964        5.38634       72.01009
H         52.32736        5.93946       73.72456
H         52.50813        7.82300       71.26779
H         51.21948        7.64863       72.55975
N         55.90050        8.97380       72.29784
C         57.16085        9.66244       72.01291
C         57.42037       10.78355       73.00402
O         58.56723       10.98015       73.38327
C         57.15732       10.27139       70.59645
C         57.01228        9.24476       69.45963
C         56.89406        9.97724       68.15508
O         55.74741        9.90524       67.45320
O         57.80190       10.69214       67.76105
H         55.18385        8.92415       71.56021
H         57.99995        8.93409       72.07688
H         58.11211       10.82278       70.43843
H         56.32355       11.00336       70.53850
H         56.09233        8.64117       69.59366
H         57.88140        8.55188       69.43871
N         56.40179       11.54863       73.48219
C         56.61622       12.60077       74.45050
H         57.25455       13.39401       74.00920
H         55.64230       13.04440       74.74822
H         57.10708       12.18969       75.35953
H         55.43930       11.36537       73.16875
Ca        55.37385       11.34299       65.75517
O         57.91585       11.82317       64.29167
H         58.30568       11.00381       64.68834
H         57.55230       11.52942       63.41896
O         57.56899       13.60541       66.73922
H         56.99366       14.17866       67.30351
H         58.11984       14.24245       66.21922
O         52.17602       10.87873       66.25927
H         52.56463        9.98837       66.06903
H         52.12272       10.92284       67.24687
O         54.28867        9.66603       63.55453
H         55.26452        9.68260       63.38611
H         53.99213       10.59564       63.38485

Ca 1.0



