%chk=apoCaM-CA-Ng.loop3.water2.frame996.chk
%nprocshared=20
%mem=10GB
%nosave
#b3lyp/svp scf=(tight,noincore,xqc) Test 
#IOP(5/87=12) Density=Current Pop=(MK,readradii) iop(6/33=2) iop(6/42=6)

apoCaM-CA-Ng.loop3.water2.frame996 

   0  1 
C         76.29029      116.32113       61.99994
C         76.79861      117.57813       62.63705
O         76.44308      118.66514       62.20400
H         75.60374      116.55226       61.15929
H         77.14318      115.71863       61.62538
H         75.73410      115.72887       62.75915
N         77.61369      117.49248       63.72032
C         78.03739      118.65886       64.48627
C         79.21539      119.36103       63.79046
O         79.70984      118.85086       62.79448
C         78.33908      118.16807       65.92774
C         78.30220      119.16805       67.04738
O         78.57477      118.78511       68.17256
O         77.90792      120.44110       66.88803
H         77.83751      116.54849       64.07585
H         77.17838      119.34440       64.55049
H         79.31623      117.63785       65.92293
H         77.55691      117.43328       66.22103
N         79.73043      120.52383       64.27809
C         80.89718      121.22049       63.73104
C         82.09398      121.02342       64.65336
O         83.20726      120.89912       64.16316
C         80.60993      122.73604       63.60056
C         79.49504      123.05759       62.58944
C         79.16501      124.56351       62.49244
C         78.55817      125.12852       63.78944
N         78.13183      126.51777       63.62614
H         79.29337      120.93205       65.10775
H         81.17918      120.82486       62.72934
H         81.53418      123.25915       63.26540
H         80.34342      123.11923       64.60643
H         78.56768      122.50842       62.85198
H         79.82780      122.71034       61.58665
H         78.41657      124.68885       61.68002
H         80.07424      125.14179       62.21610
H         79.30355      125.08229       64.60950
H         77.67357      124.51988       64.07166
H         78.95094      127.12349       63.39155
H         77.40815      126.58728       62.87428
H         77.71088      126.84983       64.52479
N         81.92824      120.98658       66.00449
C         82.99663      120.84256       66.98481
C         82.85377      119.52366       67.74353
O         83.84086      118.80427       67.81998
C         83.06076      122.11901       67.86966
C         81.71869      122.64627       68.30886
O         81.27559      123.65970       67.79068
O         80.94226      121.96549       69.16054
H         80.97834      121.07732       66.38181
H         83.99401      120.79039       66.49102
H         83.49219      122.90807       67.21405
H         83.75260      121.98819       68.72781
N         81.66382      119.09732       68.26028
C         81.49767      117.81093       68.93872
C         80.92115      117.93230       70.33766
O         80.86700      116.92231       71.02477
H         80.83498      119.68176       68.11751
H         82.47326      117.28642       69.02666
H         80.82553      117.15932       68.34034
N         80.47265      119.12045       70.83183
C         80.01100      119.32844       72.19634
C         78.54657      119.76232       72.21554
O         77.93040      119.85533       71.16415
C         80.93289      120.38943       72.83722
C         82.37209      119.92724       72.82173
N         83.31141      120.60199       72.11725
O         82.68902      118.92443       73.44433
H         80.48139      119.94919       70.23631
H         80.08150      118.39038       72.78998
H         80.64910      120.59265       73.88966
H         80.83321      121.34009       72.26758
H         83.06663      121.44344       71.57531
H         84.28911      120.27491       72.10401
N         77.94137      120.03478       73.41053
C         76.55117      120.41202       73.66073
C         75.56728      120.28055       72.51327
O         75.38306      119.18038       72.01119
H         78.52303      119.97940       74.25910
H         76.54278      121.44422       74.07287
H         76.16435      119.74100       74.45676
N         74.82586      121.35516       72.11509
C         73.75143      121.27421       71.12232
C         74.23986      120.85405       69.74540
O         75.43307      120.71175       69.52364
C         73.02398      122.64412       71.01739
C         72.16418      123.05225       72.20092
C         71.90614      122.21881       73.31040
C         71.56008      124.32166       72.15881
C         71.05479      122.64651       74.33476
C         70.71923      124.74958       73.18957
C         70.45732      123.91265       74.27662
O         69.62753      124.33196       75.25327
H         74.99124      122.25829       72.58643
H         73.02495      120.49228       71.43117
H         72.33072      122.64717       70.15076
H         73.79052      123.42607       70.82547
H         72.33375      121.23133       73.39463
H         71.73798      124.98281       71.31908
H         70.85412      121.98811       75.17068
H         70.26271      125.73018       73.13709
H         69.40570      123.77668       76.01433
N         73.30646      120.61767       68.77337
C         73.56107      120.20809       67.39794
C         74.33442      121.27823       66.65209
O         75.48139      121.53782       66.97786
C         74.23288      118.80797       67.30770
C         74.50607      118.37201       65.84200
C         73.38960      117.75055       68.04120
C         73.27878      118.27368       64.93082
H         72.31220      120.72645       69.02535
H         72.56385      120.11152       66.91560
H         75.22234      118.84876       67.81236
H         75.01890      117.38575       65.84852
H         75.19322      119.10269       65.38187
H         73.88503      116.75818       67.98561
H         73.28031      118.01445       69.11395
H         72.37358      117.67088       67.60161
H         73.60611      117.95693       63.91767
H         72.55382      117.52575       65.30838
H         72.77820      119.25718       64.82474
N         73.74032      121.95636       65.63347
C         74.41093      122.98710       64.85275
C         73.36782      123.83518       64.15826
O         72.57273      123.30915       63.38912
C         75.37123      122.37624       63.81400
O         76.40075      121.65568       64.42740
H         72.74557      121.76189       65.43879
H         74.99191      123.64637       65.53545
H         75.81238      123.17376       63.17324
H         74.81745      121.69061       63.13746
H         77.02929      122.31998       64.81190
N         73.31818      125.17437       64.39623
C         72.30265      126.04976       63.81547
C         72.73916      127.51576       63.87959
O         73.72054      127.81158       64.54927
C         70.97292      125.80660       64.55526
H         74.04728      125.57182       65.00699
H         72.22244      125.80336       62.73389
H         70.13980      126.43148       64.18830
H         70.66314      124.74490       64.45489
H         71.10352      126.02448       65.63716
N         72.15814      128.51131       63.14675
C         71.01511      128.38579       62.24420
C         69.98921      129.47521       62.57393
O         70.32366      130.36939       63.33905
C         71.53968      128.53026       60.81099
H         72.60869      129.43962       63.19446
H         70.54648      127.39153       62.33168
H         72.04762      129.50876       60.68211
H         72.27750      127.72181       60.61348
H         70.74565      128.45065       60.04688
N         68.70922      129.50341       62.09207
C         68.05966      128.43136       61.34719
C         67.42635      127.41030       62.27982
O         66.93361      126.40464       61.78762
C         67.00695      129.00030       60.35835
C         65.81321      129.70354       61.04485
C         64.80576      130.18141       60.04017
O         63.54124      129.71920       60.08137
O         65.11938      131.00654       59.19701
H         68.11677      130.26768       62.44658
H         68.80863      127.88408       60.74933
H         66.60708      128.15862       59.74987
H         67.50910      129.71046       59.66544
H         66.14528      130.58531       61.62740
H         65.31200      128.99482       61.73875
N         67.38866      127.59246       63.63160
C         66.78360      126.62303       64.51589
H         65.71461      126.48283       64.24883
H         67.32035      125.65428       64.43725
H         66.84396      126.98174       65.56538
H         67.78377      128.44032       64.06102
Ca        78.83444      121.80519       68.41044
O         75.85509      123.85369       68.93886
H         75.46385      124.22935       68.11039
H         75.73021      124.56473       69.61592
O         77.87780      124.18725       66.78674
H         78.69389      123.70793       66.49692
H         78.19333      125.09456       67.02572

Ca 1.0



