%chk=apoCaM-CA-Ng.loop2.water4.frame127.chk
%nprocshared=20
%mem=10GB
%nosave
#b3lyp/svp scf=(tight,noincore,xqc) Test 
#IOP(5/87=12) Density=Current Pop=(MK,readradii) iop(6/33=2) iop(6/42=6)

apoCaM-CA-Ng.loop2.water4.frame127 

   -2  1 
C         40.49413       37.24909       -7.21052
C         40.46031       36.45036       -8.47968
O         40.66016       37.01485       -9.54634
H         39.50574       37.19178       -6.70880
H         41.27337       36.84361       -6.53141
H         40.72614       38.31526       -7.42228
N         40.22222       35.10870       -8.43769
C         40.19690       34.28104       -9.64183
C         39.03559       34.60785      -10.57813
O         39.04707       34.11735      -11.69606
C         40.15691       32.77509       -9.27935
C         38.92565       32.32447       -8.52278
O         38.81289       31.14943       -8.21377
O         37.95014       33.18739       -8.17705
H         40.10010       34.66517       -7.51371
H         41.15067       34.46515      -10.18522
H         41.04854       32.53344       -8.66151
H         40.22214       32.18081      -10.21665
N         37.96896       35.35020      -10.15836
C         36.74783       35.60470      -10.91449
C         36.93291       36.54892      -12.09205
O         36.54400       37.69948      -11.96269
C         36.02686       34.30325      -11.30790
H         37.96790       35.70697       -9.19204
H         36.06032       36.13123      -10.21290
H         35.81859       33.69519      -10.40279
H         35.06370       34.53631      -11.80918
H         36.62858       33.68056      -12.00044
N         37.38474       36.11915      -13.30475
C         37.37024       36.95967      -14.50167
C         38.71411       37.01682      -15.21434
O         38.76926       37.57980      -16.29933
C         36.22311       36.49856      -15.42852
C         36.32840       35.09894      -15.97709
O         37.38972       34.31224      -15.71597
O         35.42881       34.67006      -16.68138
H         37.64130       35.13134      -13.41692
H         37.11843       38.01100      -14.24275
H         36.14341       37.20340      -16.28478
H         35.27563       36.57192      -14.84921
N         39.85335       36.52868      -14.64309
C         41.17099       36.62488      -15.25601
C         41.51042       38.04882      -15.63929
O         41.96214       38.27160      -16.75395
H         39.81168       36.11236      -13.70195
H         41.22686       35.97298      -16.15547
H         41.92258       36.26025      -14.52316
N         41.23646       39.07640      -14.79014
C         41.44346       40.47424      -15.15281
C         42.92364       40.81007      -15.16319
O         43.59092       40.65650      -14.15039
C         40.65594       41.39058      -14.19942
C         39.16751       41.17617      -14.38393
N         38.55933       41.50377      -15.54910
O         38.50425       40.70082      -13.47838
H         40.78150       38.85536      -13.89025
H         41.02559       40.64972      -16.16842
H         40.87390       42.45992      -14.40972
H         40.96344       41.17219      -13.15349
H         39.09106       41.91805      -16.32788
H         37.54669       41.35489      -15.67063
N         43.49609       41.27053      -16.30975
C         44.90568       41.58177      -16.47373
C         45.36999       42.74590      -15.62787
O         44.72974       43.78769      -15.64202
H         42.90054       41.38480      -17.14417
H         45.05998       41.88297      -17.53228
H         45.52232       40.67514      -16.29340
N         46.54929       42.66533      -14.94372
C         47.13349       43.80526      -14.23053
C         46.45891       44.05642      -12.87810
O         46.81144       45.02373      -12.21583
C         48.68073       43.64806      -14.10693
C         49.15412       42.53066      -13.16321
O         49.25489       43.49359      -15.38396
H         47.09271       41.79477      -15.03020
H         46.99210       44.70868      -14.86526
H         49.09241       44.59140      -13.68644
H         49.14596       42.54831      -15.66817
H         50.26364       42.47705      -13.17407
H         48.85486       42.76736      -12.12841
H         48.75274       41.53840      -13.45585
N         45.50415       43.20943      -12.39748
C         44.82486       43.32515      -11.10455
C         43.31552       43.35259      -11.32534
O         42.90480       43.33432      -12.48061
C         45.24634       42.12260      -10.19863
C         44.83665       40.75195      -10.81563
C         46.75703       42.19112       -9.92737
C         45.22884       39.54209       -9.97242
H         45.24481       42.39964      -12.97222
H         45.11327       44.26566      -10.58242
H         44.74304       42.23226       -9.21473
H         45.30515       40.60333      -11.80902
H         43.73377       40.73273      -10.94418
H         47.06992       41.43899       -9.17686
H         47.31058       41.99709      -10.86073
H         47.03901       43.18919       -9.52830
H         44.84973       38.62121      -10.46403
H         46.33276       39.44825       -9.90769
H         44.79498       39.61743       -8.95494
N         42.42169       43.34233      -10.28348
C         40.98092       43.22307      -10.51232
C         40.22824       44.40779       -9.92147
O         39.29762       44.24368       -9.14669
C         40.49902       41.84333      -10.01449
C         39.29832       41.37307      -10.82672
O         38.92917       40.05447      -10.55384
O         38.16065       42.17251      -10.71380
H         42.76586       43.34959       -9.31093
H         40.79117       43.25273      -11.60679
H         40.34692       41.81561       -8.91336
H         41.28987       41.10085      -10.26046
N         40.62505       45.65783      -10.27419
C         40.00687       46.91745       -9.85199
C         39.77115       47.00325       -8.34068
O         40.70636       46.79708       -7.58286
C         40.82464       48.11321      -10.41762
C         42.33299       47.97518      -10.26158
C         42.98883       48.15269       -9.03104
C         43.09971       47.62447      -11.39319
C         44.37550       47.96696       -8.93799
C         44.47630       47.42923      -11.29273
C         45.11571       47.59853      -10.06569
H         41.43247       45.69900      -10.90868
H         39.01659       46.96727      -10.34123
H         40.45522       49.09202      -10.04269
H         40.60924       48.10470      -11.50863
H         42.43946       48.43770       -8.14599
H         42.62552       47.47106      -12.35508
H         44.87900       48.10305       -7.98992
H         45.04255       47.13986      -12.16857
H         46.18455       47.44436       -9.99179
N         38.52924       47.30326       -7.82377
C         38.17619       47.32970       -6.40693
C         38.44161       46.02050       -5.68827
O         39.02296       46.04614       -4.61375
C         36.66340       47.60641       -6.40874
C         36.51591       48.47688       -7.62759
C         37.39930       47.73996       -8.62760
H         38.71434       48.17240       -5.91580
H         36.09420       46.67395       -6.62915
H         36.27294       48.03770       -5.46171
H         35.47444       48.65260       -7.97109
H         36.98619       49.46122       -7.39526
H         36.89669       46.84658       -9.05960
H         37.67613       48.47283       -9.41593
N         38.04144       44.83093       -6.23424
C         38.23144       43.53789       -5.57100
C         39.69626       43.22005       -5.28452
O         39.94702       42.25975       -4.56766
C         37.65385       42.38320       -6.42240
C         36.13534       42.47170       -6.63603
C         35.66951       41.33045       -7.48814
O         34.78395       40.43477       -7.01401
O         36.09352       41.21223       -8.62220
H         37.57677       44.85678       -7.15293
H         37.69673       43.57565       -4.59561
H         37.86004       41.41352       -5.91597
H         38.17548       42.37481       -7.40622
H         35.85426       43.41592       -7.14591
H         35.62119       42.43093       -5.65273
N         40.71700       43.95633       -5.80183
C         42.10215       43.68511       -5.49727
H         42.75156       44.41421       -6.02785
H         42.27291       43.79008       -4.40454
H         42.36985       42.65950       -5.82503
H         40.52115       44.73156       -6.43938
Ca        36.75191       40.42401      -11.08577
O         35.14386       39.90733      -13.88800
H         34.58152       39.10449      -14.02644
H         35.58424       40.05471      -14.76234
O         36.28143       42.82491      -13.18716
H         36.92001       43.52884      -13.46373
H         35.64978       42.74864      -13.94571
O         34.02266       41.93963      -11.22631
H         34.06000       42.16033      -10.26201
H         33.82157       42.80127      -11.67017
O         34.30675       38.86033      -10.45590
H         34.15295       37.88964      -10.33850
H         33.68614       39.29275       -9.81782

Ca 1.0



