%chk=apoCaM-CA-Ng.loop4.water3.frame283.chk
%nprocshared=20
%mem=10GB
%nosave
#b3lyp/svp scf=(tight,noincore,xqc) Test 
#IOP(5/87=12) Density=Current Pop=(MK,readradii) iop(6/33=2) iop(6/42=6)

apoCaM-CA-Ng.loop4.water3.frame283 

   -3  1 
C         36.82140       41.13677       11.15872
C         36.48571       40.70088        9.76599
O         37.21991       41.04680        8.86213
H         37.74719       41.75457       11.15933
H         35.98996       41.73956       11.57605
H         36.99605       40.24418       11.79437
N         35.39710       39.91723        9.52381
C         35.02028       39.39490        8.21157
C         36.07218       38.46689        7.64115
O         36.61531       38.75275        6.59193
C         34.46431       40.46308        7.22567
C         35.17929       41.76513        6.90211
O         36.38794       41.87312        6.30132
O         34.56506       42.80204        7.09968
H         34.81720       39.63626       10.32912
H         34.14234       38.72327        8.35505
H         33.48046       40.76427        7.65369
H         34.23450       39.95136        6.26559
N         36.34532       37.29228        8.28965
C         37.26754       36.22839        7.87294
C         36.77606       35.46079        6.63893
O         36.44215       34.29280        6.78883
C         38.73407       36.72728        7.76777
C         39.72481       35.60400        7.36399
C         39.17455       37.38024        9.09192
C         39.77720       34.39020        8.29856
H         35.84739       37.12676        9.17868
H         37.25088       35.48389        8.70130
H         38.80011       37.50348        6.97538
H         40.74092       36.04597        7.32198
H         39.46903       35.23957        6.34632
H         39.10493       36.66534        9.93770
H         40.22226       37.73794        9.01513
H         38.53396       38.25472        9.33043
H         38.80144       33.86470        8.33120
H         40.53166       33.67069        7.91585
H         40.07418       34.68304        9.32521
N         36.69148       36.02470        5.40144
C         36.15998       35.31984        4.24115
C         37.06862       34.19889        3.74503
O         36.58381       33.07735        3.69676
C         35.83222       36.29416        3.08902
C         34.75630       37.26736        3.49107
O         34.96914       38.46793        3.46710
O         33.54314       36.81610        3.86545
H         36.96775       36.99915        5.27114
H         35.18247       34.86578        4.52823
H         35.44928       35.71792        2.21824
H         36.73814       36.84621        2.76772
N         38.34686       34.36405        3.28393
C         39.15306       35.57246        3.33685
C         39.35640       36.18173        1.96493
O         38.64087       35.80439        1.04742
H         38.81176       33.53943        2.87168
H         40.12708       35.28458        3.77427
H         38.71051       36.33489        3.99117
N         40.29289       37.14682        1.70854
C         41.33529       37.58615        2.64330
C         40.77234       38.19853        3.92023
O         39.61298       38.58631        3.91643
C         42.28793       38.58970        1.93354
C         41.64595       39.92617        1.64846
O         42.16710       41.04594        2.18688
O         40.66279       40.00858        0.93035
H         40.31742       37.51812        0.74591
H         41.91631       36.67746        2.89868
H         42.65211       38.14437        0.98336
H         43.18431       38.78113        2.54344
N         41.50480       38.36746        5.06206
C         42.88157       37.94620        5.29217
C         43.03937       36.45182        5.41302
O         42.07347       35.71630        5.27815
H         41.03580       38.83500        5.84793
H         43.21241       38.35486        6.26648
H         43.57093       38.36591        4.54488
N         44.26131       35.93680        5.72010
C         44.49846       34.52179        5.97272
C         44.99702       34.27695        7.39568
O         45.25666       33.12702        7.71488
C         45.43503       33.92807        4.89855
C         46.84169       34.54665        4.84016
C         47.69545       33.92692        3.75406
N         48.95446       34.37471        3.54605
O         47.25781       33.02537        3.05249
H         45.05614       36.58937        5.80982
H         43.54991       33.94658        5.88414
H         44.94485       34.06445        3.90894
H         45.53190       32.83425        5.08055
H         47.34634       34.40175        5.81773
H         46.76300       35.63301        4.63035
H         49.34331       35.13841        4.11635
H         49.54077       33.96111        2.80573
N         45.09550       35.28719        8.32088
C         45.48933       35.05503        9.71302
C         46.72827       35.84500       10.12127
O         47.20464       35.60475       11.22560
C         44.30274       35.34588       10.67628
C         43.10729       34.43465       10.36084
C         43.85856       36.81795       10.65160
H         44.83298       36.24405        8.05783
H         45.76280       33.98591        9.84930
H         44.63350       35.11036       11.71293
H         42.28832       34.60733       11.09119
H         42.71575       34.63225        9.34023
H         43.40991       33.36789       10.42734
H         43.47242       37.10676        9.65298
H         43.04729       36.98236       11.39231
H         44.70295       37.48714       10.91953
N         47.31978       36.77719        9.31644
C         48.56420       37.45344        9.66981
C         48.39997       38.96006        9.76610
O         48.76317       39.52345       10.78772
C         49.64653       37.14380        8.61676
C         49.89049       35.66476        8.46627
N         49.69937       35.05867        7.27200
O         50.26888       35.00984        9.42603
H         46.91019       36.99369        8.39622
H         48.95084       37.09152       10.65025
H         50.60150       37.63146        8.91317
H         49.34077       37.56745        7.63601
H         49.38603       35.60027        6.45402
H         49.86536       34.04781        7.16126
N         47.94578       39.68361        8.70077
C         48.05545       41.13659        8.61660
C         46.71282       41.81721        8.42739
O         45.93442       41.38755        7.58935
C         48.93433       41.48581        7.39719
C         50.31210       40.87158        7.46105
C         51.20938       41.22278        8.48352
C         50.71732       39.95037        6.48010
C         52.49068       40.66324        8.52032
C         51.99657       39.39065        6.52048
C         52.88857       39.74571        7.53665
O         54.12281       39.20356        7.55485
H         47.61082       39.18380        7.86431
H         48.55004       41.56040        9.51735
H         49.05129       42.58766        7.31978
H         48.41293       41.13819        6.47712
H         50.92195       41.93477        9.24669
H         50.04426       39.66405        5.68153
H         53.17433       40.94668        9.31054
H         52.29546       38.68325        5.75721
H         54.77464       39.42985        8.23338
N         46.45679       42.98998        9.08604
C         45.32276       43.87734        8.81950
C         43.97578       43.33332        9.26740
O         42.98860       44.02337        9.04868
C         45.28100       44.31665        7.33339
C         46.58716       44.99043        6.88821
C         46.49441       45.43953        5.45840
O         45.56548       46.34369        5.09236
O         47.26497       44.99453        4.62275
H         47.16392       43.34037        9.74999
H         45.47298       44.80605        9.41605
H         44.45306       45.04817        7.20265
H         45.06569       43.45210        6.67221
H         47.43047       44.27724        6.99312
H         46.79433       45.87527        7.52752
N         43.84537       42.16523        9.96004
C         42.55739       41.68247       10.45273
C         42.48778       41.75663       11.97378
O         41.43664       41.44107       12.51461
C         42.33519       40.22729        9.99678
C         42.45084       40.02245        8.48126
C         41.33443       40.64779        7.70096
O         40.08256       40.18021        7.85760
O         41.56498       41.50467        6.86269
H         44.68319       41.61260       10.19239
H         41.72673       42.31192       10.06367
H         41.34727       39.85476       10.34905
H         43.12309       39.60592       10.47309
H         42.41284       38.93248        8.28406
H         43.43266       40.39910        8.12560
N         43.55134       42.16280       12.73246
C         43.51702       42.24656       14.17843
H         43.75628       43.28492       14.48998
H         42.52718       41.97326       14.59892
H         44.28094       41.56136       14.60242
H         44.44285       42.42356       12.29004
Ca        38.36535       40.79947        6.53252
O         39.73064       42.42677        4.22855
H         39.90521       41.57644        3.75270
H         40.51688       42.99291        4.02487
O         37.04314       40.71948        3.33042
H         37.60088       40.70454        2.51254
H         37.21944       39.84816        3.76590
O         38.72242       43.91306        6.84976
H         37.86867       43.95452        7.34957
H         39.39275       43.64226        7.52628

Ca 1.0



