%chk=apoCaM-CA-Ng.loop4.water5.frame539.chk
%nprocshared=20
%mem=10GB
%nosave
#b3lyp/svp scf=(tight,noincore,xqc) Test 
#IOP(5/87=12) Density=Current Pop=(MK,readradii) iop(6/33=2) iop(6/42=6)

apoCaM-CA-Ng.loop4.water5.frame539 

   -3  1 
C         72.70283        8.35633       68.79620
C         71.71770        7.41840       69.42550
O         71.12124        7.76900       70.43188
H         73.70499        7.88252       68.75859
H         72.37018        8.59591       67.76388
H         72.76955        9.30415       69.37224
N         71.47201        6.20638       68.84841
C         70.49512        5.22521       69.32287
C         69.04676        5.70569       69.20057
O         68.15769        4.93221       69.53127
C         70.81283        4.74188       70.75663
C         72.20993        4.20585       70.88399
O         72.57385        3.25913       70.20513
O         73.06148        4.75715       71.76926
H         72.01006        5.95730       68.00420
H         70.56914        4.33412       68.65969
H         70.10422        3.93342       71.03958
H         70.68528        5.56274       71.48104
N         68.71903        6.93832       68.70509
C         67.33927        7.38731       68.52756
C         66.61786        6.49081       67.52101
O         67.27699        5.99172       66.61901
C         67.25648        8.88622       68.08817
C         67.98477        9.14984       66.73592
C         67.78182        9.79144       69.22027
C         67.83657       10.57913       66.21683
H         69.46572        7.58015       68.43381
H         66.85536        7.29469       69.52181
H         66.18038        9.13604       67.95307
H         67.55971        8.48187       65.95853
H         69.07019        8.93708       66.81296
H         67.62959       10.86284       68.98169
H         67.21698        9.59331       70.15630
H         68.86069        9.61869       69.41389
H         66.76447       10.83338       66.08517
H         68.31510       11.30915       66.90020
H         68.34655       10.66215       65.23319
N         65.29355        6.16499       67.61004
C         64.36882        6.65316       68.62431
C         64.15750        5.59289       69.68753
O         64.40787        5.89573       70.84720
C         63.07180        7.25319       68.01841
C         62.18944        6.40987       67.12662
O         62.50640        5.15662       66.76369
O         61.16044        6.90084       66.69110
H         64.93598        5.47942       66.92914
H         64.79841        7.52315       69.15977
H         63.36247        8.14331       67.41836
H         62.44777        7.61154       68.86707
N         63.77187        4.31771       69.39193
C         63.62109        3.30541       70.41846
C         62.49780        3.66906       71.35382
O         61.35141        3.69658       70.92848
H         63.63234        4.02664       68.41955
H         64.58640        3.21009       70.96275
H         63.39760        2.31789       69.96020
N         62.76731        3.97979       72.65148
C         61.74211        4.32694       73.63265
C         60.90980        5.56970       73.28606
O         59.94869        5.81284       74.00279
C         62.36987        4.41700       75.04925
C         63.55920        5.34297       75.15757
O         63.44119        6.65938       74.92718
O         64.65044        4.89297       75.46994
H         63.75100        3.93189       72.95758
H         61.01631        3.48385       73.66700
H         62.72076        3.39596       75.31904
H         61.59825        4.70721       75.79404
N         61.15801        6.37406       72.20596
C         60.28345        7.47923       71.81621
C         60.25169        8.64655       72.78843
O         59.52106        9.59273       72.53486
H         61.95757        6.17925       71.59246
H         59.25352        7.08607       71.67557
H         60.62865        7.88250       70.83905
N         61.03631        8.66749       73.89829
C         61.11954        9.74909       74.86741
C         61.64080       11.02566       74.22752
O         61.17157       12.10802       74.55200
C         59.80261        9.93204       75.65579
C         59.37464        8.62619       76.35239
C         58.12554        8.77129       77.18784
N         57.63659        7.69866       77.85223
O         57.55046        9.84696       77.27373
H         61.65899        7.87862       74.07167
H         61.90048        9.45207       75.60440
H         58.99181       10.27039       74.97549
H         59.96014       10.71331       76.43192
H         60.19646        8.27990       77.01589
H         59.18448        7.84648       75.58529
H         58.10726        6.78358       77.79118
H         56.78625        7.78115       78.42905
N         62.65791       10.95545       73.32140
C         63.34404       12.11822       72.76438
C         64.84792       12.04216       73.00695
O         65.53826       12.97345       72.61480
C         63.09029       12.24535       71.23289
C         63.59509       11.02634       70.43500
C         61.60991       12.49848       70.93246
H         62.96609       10.02114       73.01547
H         62.97954       13.05005       73.25122
H         63.64718       13.13848       70.86887
H         63.04101       10.10494       70.70982
H         63.45749       11.20168       69.34709
H         64.67899       10.85797       70.61028
H         61.26572       13.41301       71.46106
H         61.46809       12.65905       69.84198
H         60.98639       11.63818       71.25148
N         65.44147       10.95567       73.58619
C         66.88662       10.77469       73.59212
C         67.46710       11.38339       74.86772
O         66.70421       11.80733       75.72428
C         67.16674        9.25734       73.41341
C         68.53423        8.84937       72.92776
N         68.83539        7.53605       72.84220
O         69.36167        9.67523       72.57798
H         64.87285       10.16751       73.92238
H         67.30362       11.29767       72.70333
H         66.47644        8.85898       72.63567
H         66.92824        8.74137       74.36921
H         68.14950        6.81480       73.10918
H         69.76463        7.24390       72.52065
N         68.81215       11.47989       75.05468
C         69.42224       12.09191       76.23237
C         70.67357       12.87191       75.84068
O         71.02575       12.88993       74.67000
C         69.72006       11.02033       77.30838
C         70.75985       10.00087       76.89717
C         72.01100        9.97637       77.53625
C         70.49258        9.05951       75.89005
C         72.97888        9.04073       77.16120
C         71.46137        8.12627       75.51284
C         72.70818        8.11447       76.14375
O         73.63428        7.20999       75.76778
H         69.43639       11.13249       74.32439
H         68.71363       12.82194       76.68101
H         68.78277       10.49492       77.59383
H         70.06619       11.55079       78.22021
H         72.24192       10.68587       78.32107
H         69.53146        9.03869       75.40331
H         73.93902        9.03899       77.66058
H         71.24076        7.40974       74.73157
H         74.50989        7.17042       76.17793
N         71.40864       13.53337       76.78465
C         72.63404       14.25222       76.45716
C         73.80318       13.57155       77.15320
O         73.82590       13.57085       78.37541
C         72.52986       15.73267       76.86329
C         71.37741       16.43945       76.13344
C         71.31683       17.89354       76.49968
O         70.21634       18.39551       77.09165
O         72.25767       18.63074       76.25076
H         71.10865       13.50888       77.76938
H         72.79058       14.24359       75.37063
H         73.48760       16.23586       76.60176
H         72.37464       15.81592       77.96194
H         70.41392       15.95613       76.40592
H         71.51588       16.35423       75.03373
N         74.79791       12.91605       76.47860
C         74.86583       12.78419       75.02665
C         75.20259       14.10814       74.37093
O         76.22343       14.69811       74.69960
C         75.90919       11.74206       74.58103
C         75.56361       10.32810       75.07357
C         76.36516        9.30602       74.32581
O         76.21921        9.22773       72.98833
O         77.10981        8.53638       74.91090
H         75.51773       12.43994       77.04523
H         73.89116       12.40074       74.65007
H         76.93866       12.01883       74.90034
H         75.88134       11.73699       73.46784
H         74.49633       10.10831       74.85860
H         75.72801       10.25004       76.17002
N         74.39959       14.61367       73.39494
C         74.70084       15.85119       72.71203
H         75.68564       15.77184       72.20363
H         73.92343       16.05690       71.94570
H         74.72068       16.69069       73.43804
H         73.55451       14.09540       73.11000
Ca        77.20989        7.70202       71.65947
O         79.78591        9.16930       71.27599
H         79.83053        8.97400       72.24585
H         79.27893       10.01778       71.21770
O         73.85774        8.22450       71.74490
H         73.25634        8.81185       72.26783
H         73.82923        7.35514       72.21645
O         75.63098        5.75030       69.68116
H         75.59787        4.84161       69.28965
H         75.25212        5.64269       70.58907
O         78.26011        5.32743       73.08296
H         77.35127        5.53504       73.41769
H         78.11934        5.04060       72.14538
O         76.46819       10.92161       70.49838
H         77.10516       10.69641       69.77453
H         76.80989       11.77120       70.87520

Ca 1.0



