%chk=apoCaM-CA-Ng.loop4.water4.frame375.chk
%nprocshared=20
%mem=10GB
%nosave
#b3lyp/svp scf=(tight,noincore,xqc) Test 
#IOP(5/87=12) Density=Current Pop=(MK,readradii) iop(6/33=2) iop(6/42=6)

apoCaM-CA-Ng.loop4.water4.frame375 

   -3  1 
C         56.67296       99.29520       19.32115
C         58.16403       99.37857       19.19432
O         58.64060       99.67482       18.11348
H         56.18459       99.51929       18.34676
H         56.38185       98.27157       19.63520
H         56.31850      100.03041       20.07243
N         58.96665       99.14776       20.27337
C         60.42892       99.19864       20.24937
C         60.90319      100.57671       19.80393
O         61.54958      100.69071       18.78247
C         61.03962       97.95914       19.51613
C         60.75745       97.84605       18.04379
O         61.33930       98.69121       17.17583
O         59.97473       97.00469       17.63158
H         58.51375       98.94310       21.17719
H         60.78661       99.07502       21.29607
H         60.61656       97.06246       20.02128
H         62.14089       97.92929       19.66118
N         60.58608      101.66919       20.56268
C         60.93123      103.07705       20.31722
C         62.43683      103.34328       20.37447
O         62.86773      103.98480       21.32326
C         60.27337      103.66099       19.03199
C         60.55430      105.18473       18.85614
C         58.75929      103.39074       19.00092
C         60.00848      106.09226       19.96712
H         60.03306      101.49052       21.41587
H         60.48549      103.62994       21.17381
H         60.70669      103.14576       18.15221
H         60.11531      105.51960       17.89134
H         61.64701      105.35909       18.79612
H         58.24829      103.84087       19.87653
H         58.31751      103.80773       18.07087
H         58.55756      102.30116       19.00918
H         58.90515      106.01867       20.04512
H         60.46618      105.85269       20.94827
H         60.26071      107.14814       19.73326
N         63.29793      102.91889       19.40165
C         64.72978      103.17814       19.44573
C         65.00972      104.66981       19.26139
O         65.56747      105.24433       20.18576
C         65.50367      102.27738       18.45145
C         65.37539      100.80502       18.76224
O         65.95313       99.99246       18.05842
O         64.63712      100.36662       19.80190
H         62.94438      102.40479       18.59170
H         65.11077      102.87762       20.44986
H         66.58296      102.53916       18.49831
H         65.15030      102.41028       17.41789
N         64.65441      105.41055       18.16360
C         63.99029      104.88814       16.97237
C         63.63623      105.95891       15.95030
O         63.91588      107.12276       16.20110
H         64.87669      106.41646       18.20712
H         63.05844      104.39277       17.27913
H         64.67948      104.19713       16.47910
N         63.01321      105.70066       14.75590
C         62.56068      104.42170       14.20110
C         61.48739      103.75340       15.05160
O         61.83324      102.92392       15.87945
C         63.71299      103.45093       13.85398
C         64.73909      104.09548       12.96633
O         64.42211      104.52763       11.86945
O         66.01870      104.18980       13.37500
H         62.82932      106.52052       14.15478
H         62.10041      104.64874       13.21681
H         63.29611      102.56603       13.32583
H         64.20812      103.06737       14.76231
N         60.14848      103.96426       14.87500
C         59.54401      104.85775       13.89920
C         59.75488      106.31251       14.23043
O         60.37928      106.62420       15.23493
H         59.49973      103.42405       15.46432
H         58.44412      104.69764       13.91144
H         59.89965      104.61372       12.87700
N         59.18698      107.26824       13.43934
C         59.26107      108.69377       13.74044
C         57.92323      109.23120       14.23713
O         57.90070      110.36537       14.69537
C         59.91613      109.47930       12.58040
C         59.22640      109.41301       11.20545
C         57.89009      110.09846       11.16116
N         57.77829      111.41769       11.44116
O         56.90134      109.46342       10.83444
H         58.63407      106.96327       12.62404
H         59.93867      108.84748       14.60929
H         60.93536      109.05468       12.44473
H         60.04836      110.54047       12.88211
H         59.13153      108.35503       10.88111
H         59.88042      109.92445       10.46679
H         58.60435      111.97755       11.69583
H         56.86342      111.88659       11.39154
N         56.80325      108.44360       14.29587
C         55.61709      108.79484       15.07608
C         54.34740      108.93205       14.24523
O         53.30785      109.17142       14.84453
C         55.41379      107.73765       16.21046
C         56.66297      107.62893       17.10119
C         55.03206      106.33947       15.68264
H         56.81635      107.50852       13.86968
H         55.76296      109.77769       15.57656
H         54.57608      108.08585       16.85521
H         56.47581      106.92777       17.94256
H         57.53355      107.24890       16.52394
H         56.92153      108.62126       17.52679
H         54.84596      105.65225       16.53535
H         54.09869      106.38599       15.08334
H         55.83508      105.89632       15.05942
N         54.33776      108.82068       12.88402
C         53.11109      108.93148       12.09207
C         52.85759      107.70946       11.21738
O         51.77595      107.63754       10.64835
C         53.16834      110.18785       11.20222
C         53.34081      111.45135       12.00812
N         52.41102      111.83150       12.91527
O         54.32868      112.14685       11.83104
H         55.22729      108.68776       12.39258
H         52.23130      109.01678       12.76554
H         52.22963      110.27911       10.61337
H         54.01505      110.08337       10.48686
H         51.56401      111.26771       13.07463
H         52.53666      112.69851       13.45857
N         53.79584      106.73737       11.01654
C         53.57986      105.57975       10.14928
C         53.92249      104.30105       10.88734
O         54.56016      104.39561       11.91816
C         54.55139      105.67117        8.95396
C         54.43565      106.95781        8.18089
C         55.49240      107.88408        8.20663
C         53.29292      107.23882        7.41749
C         55.40710      109.07408        7.48323
C         53.21388      108.42736        6.68343
C         54.26823      109.34824        6.71405
O         54.17883      110.48818        6.00016
H         54.72566      106.82774       11.44787
H         52.52734      105.54239        9.79319
H         54.40420      104.82205        8.25376
H         55.58563      105.59161        9.36172
H         56.38312      107.68809        8.79081
H         52.47336      106.53222        7.37899
H         56.22920      109.77805        7.51851
H         52.33416      108.63083        6.08658
H         54.88970      111.14530        5.99191
N         53.63640      103.08259       10.33423
C         54.16699      101.77194       10.73780
C         53.80734      101.27424       12.13987
O         53.12495      100.26310       12.23667
C         55.69640      101.71613       10.52467
C         56.07425      101.97982        9.05847
C         57.56048      101.93003        8.86435
O         58.05380      101.11674        8.09958
O         58.35607      102.79860        9.51776
H         53.06859      103.08504        9.47233
H         53.73013      101.02540       10.03387
H         56.06414      100.70234       10.80017
H         56.20114      102.45817       11.17945
H         55.72469      102.98174        8.74451
H         55.58390      101.21897        8.41114
N         54.31856      101.85268       13.26374
C         54.20229      101.29559       14.60695
C         52.76816      101.16590       15.10547
O         52.58541      100.55861       16.15222
C         54.99062      102.15321       15.63919
C         56.43944      102.54564       15.27588
C         57.34790      101.38591       15.01418
O         57.16324      100.62937       14.07474
O         58.40880      101.22225       15.81438
H         54.92052      102.65655       13.15311
H         54.64416      100.27562       14.56866
H         55.00346      101.61260       16.61182
H         54.44438      103.11074       15.79056
H         56.84252      103.13050       16.13111
H         56.48367      103.22720       14.40560
N         51.70891      101.71812       14.44499
C         50.33986      101.60568       14.90793
H         49.72752      101.11343       14.12421
H         50.25134      101.01149       15.84195
H         49.93326      102.62016       15.10068
H         51.85898      102.26066       13.58386
Ca        60.00032       99.65491       15.67365
O         61.71453       97.72585       13.87345
H         61.20396       97.16439       14.50969
H         61.06026       97.95760       13.16718
O         60.77923      101.17694       13.03299
H         61.51632      100.77118       12.51099
H         59.95429      100.81575       12.62157
O         58.11784       97.29167       14.99847
H         58.18281       97.99592       14.30540
H         57.55657       97.69317       15.70879
O         63.39749      100.15562       15.48369
H         64.28586      100.26836       15.06170
H         63.48645      100.58821       16.36979

Ca 1.0



