%chk=apoCaM-CA-Ng.loop4.water8.frame713.chk
%nprocshared=20
%mem=10GB
%nosave
#b3lyp/svp scf=(tight,noincore,xqc) Test 
#IOP(5/87=12) Density=Current Pop=(MK,readradii) iop(6/33=2) iop(6/42=6)

apoCaM-CA-Ng.loop4.water8.frame713 

   -3  1 
C         77.52987      -14.89056       12.40825
C         78.33667      -16.05359       12.90603
O         78.32051      -17.09497       12.26790
H         76.77598      -14.60405       13.17054
H         78.20158      -14.02744       12.21747
H         77.00340      -15.14769       11.46392
N         79.04748      -15.93190       14.06861
C         79.89460      -16.94465       14.70884
C         80.27534      -18.13093       13.82795
O         80.03065      -19.27715       14.18103
C         79.29368      -17.34893       16.07521
C         77.87587      -17.83721       15.97821
O         77.58266      -18.96996       16.32402
O         76.91040      -16.99810       15.56255
H         78.96364      -15.03718       14.57599
H         80.87546      -16.46771       14.92491
H         79.28895      -16.46431       16.74740
H         79.94035      -18.12235       16.54541
N         80.94656      -17.89575       12.66467
C         81.45418      -18.95655       11.79558
C         82.57045      -19.73526       12.49081
O         83.21428      -19.16887       13.36358
C         81.98847      -18.37357       10.43868
C         83.15516      -17.35869       10.63162
C         80.82227      -17.77298        9.63948
C         83.76534      -16.86178        9.32002
H         81.08810      -16.91175       12.40036
H         80.60670      -19.63709       11.57586
H         82.38595      -19.20965        9.82914
H         83.97314      -17.85144       11.19733
H         82.82909      -16.46888       11.20624
H         80.04728      -18.55159        9.50489
H         80.37315      -16.90131       10.15821
H         81.14203      -17.46157        8.62507
H         84.13809      -17.71659        8.71784
H         83.03182      -16.27904        8.72718
H         84.61852      -16.18753        9.54652
N         82.94569      -20.99773       12.12216
C         82.20464      -21.85183       11.19872
C         80.91596      -22.31765       11.84892
O         79.84904      -22.09994       11.29281
C         83.04207      -23.06222       10.70094
C         83.46181      -24.07338       11.73975
O         84.29832      -23.73389       12.73847
O         83.06598      -25.22564       11.65972
H         83.79526      -21.37707       12.56283
H         81.97515      -21.29140       10.27145
H         83.95493      -22.68561       10.19221
H         82.42956      -23.59022        9.93488
N         80.95059      -22.96755       13.04614
C         79.77808      -23.49792       13.70736
C         79.16678      -24.61304       12.89894
O         79.85999      -25.57493       12.59616
H         81.85243      -23.09324       13.52687
H         79.05174      -22.68143       13.90911
H         80.08504      -23.92853       14.68576
N         77.84901      -24.57554       12.55896
C         77.18748      -25.68514       11.88068
C         77.65485      -25.90874       10.44816
O         77.30046      -26.94142        9.89860
C         75.64521      -25.54448       11.94038
C         75.08050      -24.35735       11.19632
O         74.26247      -24.53182       10.30752
O         75.42562      -23.09952       11.53109
H         77.29180      -23.77622       12.88984
H         77.43566      -26.60419       12.45841
H         75.33718      -25.46600       13.00445
H         75.18964      -26.47317       11.52910
N         78.42159      -25.00921        9.76062
C         78.82367      -25.23390        8.37698
C         77.65489      -25.26397        7.40153
O         77.88212      -25.57443        6.24131
H         78.73438      -24.14228       10.21599
H         79.37331      -26.19875        8.32484
H         79.51702      -24.42892        8.04828
N         76.38640      -24.93065        7.78574
C         75.21492      -24.95905        6.91727
C         75.32460      -23.98093        5.75759
O         74.58519      -24.12614        4.79373
C         74.85032      -26.39879        6.48187
C         74.57423      -27.29286        7.70375
C         74.08985      -28.66198        7.30492
N         74.77901      -29.77248        7.65788
O         73.05006      -28.77182        6.67225
H         76.22317      -24.61479        8.74636
H         74.34105      -24.60003        7.50641
H         75.65435      -26.84364        5.85805
H         73.92058      -26.35460        5.87250
H         73.79330      -26.82648        8.34307
H         75.49980      -27.38300        8.30135
H         75.65367      -29.70554        8.19850
H         74.43322      -30.70693        7.39352
N         76.12365      -22.87622        5.84999
C         76.14243      -21.81121        4.84911
C         75.55131      -20.51991        5.40058
O         75.30603      -19.62100        4.60718
C         77.56375      -21.59392        4.26877
C         78.60450      -21.26536        5.35423
C         78.00835      -22.82044        3.46265
H         76.69755      -22.75172        6.69459
H         75.47078      -22.08086        4.00405
H         77.52065      -20.73615        3.56101
H         78.74529      -22.11780        6.05196
H         79.58777      -21.05220        4.88500
H         78.29681      -20.37143        5.93598
H         78.06777      -23.72225        4.10718
H         77.28528      -23.01539        2.64129
H         79.00399      -22.63816        3.00574
N         75.24794      -20.36376        6.72283
C         74.49690      -19.23121        7.24590
C         73.22838      -19.75233        7.89886
O         73.01526      -20.95814        7.93757
C         75.36118      -18.41802        8.22712
C         76.53336      -17.78896        7.51588
N         77.80005      -18.08936        7.87508
O         76.33492      -16.99364        6.60888
H         75.50325      -21.09132        7.40439
H         74.17570      -18.55100        6.42606
H         75.70716      -19.07686        9.05261
H         74.76795      -17.59232        8.67461
H         77.97945      -18.75831        8.63579
H         78.59943      -17.65442        7.39019
N         72.30294      -18.88388        8.38383
C         71.01128      -19.32419        8.90825
C         70.02956      -18.16978        9.03456
O         70.39327      -17.02820        8.80105
C         71.13272      -20.14106       10.22449
C         71.83540      -19.45668       11.37479
C         73.22883      -19.27178       11.35117
C         71.11550      -19.06395       12.51719
C         73.88989      -18.71701       12.44830
C         71.77783      -18.49967       13.61121
C         73.16444      -18.33513       13.58405
O         73.79085      -17.82631       14.65951
H         72.50494      -17.87767        8.29057
H         70.55057      -19.98683        8.14203
H         71.66117      -21.09964       10.04167
H         70.10965      -20.43256       10.54028
H         73.81443      -19.58727       10.50289
H         70.04308      -19.20168       12.56817
H         74.96701      -18.60050       12.42069
H         71.21644      -18.20599       14.48931
H         74.75168      -17.73920       14.68557
N         68.72174      -18.42496        9.31679
C         67.68105      -17.40931        9.33872
C         67.00163      -17.42861       10.70310
O         65.94117      -18.02755       10.82111
C         66.70823      -17.69150        8.17050
C         65.61885      -16.61240        8.04084
C         64.74467      -16.86757        6.84740
O         65.22282      -16.87347        5.72395
O         63.42386      -17.07395        7.00936
H         68.42647      -19.40205        9.46620
H         68.08426      -16.40273        9.12806
H         66.24016      -18.69424        8.28669
H         67.30405      -17.69821        7.22978
H         66.08892      -15.61151        7.92759
H         64.98712      -16.59924        8.95330
N         67.53377      -16.83494       11.81325
C         68.75261      -16.03035       11.84670
C         68.58879      -14.77733       11.00243
O         67.60312      -14.06948       11.16093
C         69.08115      -15.61529       13.29916
C         70.40769      -14.83294       13.36260
C         70.80167      -14.39138       14.74061
O         70.11744      -14.64897       15.71859
O         71.93641      -13.68074       14.87966
H         67.01336      -16.95219       12.69780
H         69.60672      -16.64439       11.48735
H         69.17588      -16.53156       13.92269
H         68.25479      -14.99288       13.71021
H         70.32966      -13.91436       12.74426
H         71.22396      -15.46752       12.95471
N         69.55119      -14.42388       10.10796
C         69.44503      -13.24784        9.27572
H         70.35531      -13.15100        8.64573
H         68.56022      -13.33578        8.61064
H         69.35226      -12.34056        9.90884
H         70.40392      -14.99364       10.03024
Ca        72.70127      -12.90151       16.85516
O         74.64173       -9.97090       16.39918
H         74.69545       -9.87180       15.41578
H         75.57565       -9.86540       16.71050
O         74.39760      -14.41174       18.92691
H         74.40752      -14.13852       19.87840
H         74.38562      -15.40144       18.95082
O         73.20037      -11.10215       19.24004
H         72.27796      -10.96608       19.57313
H         73.49832      -10.20086       18.95913
O         71.59391      -10.42015       15.44891
H         70.90053      -10.74244       16.07823
H         71.22624      -10.61842       14.55131
O         70.50241      -13.56643       18.83506
H         70.24721      -12.95160       18.10153
H         70.89278      -14.35343       18.37756
O         74.45582      -14.91095       15.61440
H         74.28020      -15.69409       16.19394
H         74.89926      -15.27915       14.81030
O         76.23559      -12.72679       16.91553
H         76.62411      -12.21128       17.66641
H         76.99244      -12.87044       16.29347
O         74.28892      -12.21909       13.92265
H         73.79457      -11.52237       13.42193
H         74.98695      -12.53145       13.29424

Ca 1.0



