%chk=apoCaM-CA-Ng.loop1.water3.frame953.chk
%nprocshared=20
%mem=10GB
%nosave
#b3lyp/svp scf=(tight,noincore,xqc) Test 
#IOP(5/87=12) Density=Current Pop=(MK,readradii) iop(6/33=2) iop(6/42=6)

apoCaM-CA-Ng.loop1.water3.frame953 

   0  1 
C         91.67583       68.83002       26.03910
C         91.45160       68.02128       27.28653
O         90.30887       67.86571       27.69176
H         92.75203       68.86988       25.76629
H         91.12116       68.37008       25.19407
H         91.31245       69.86750       26.19072
N         92.50540       67.46389       27.94598
C         92.35847       66.62324       29.13187
C         91.65373       67.34624       30.27736
O         92.13824       68.36385       30.75035
C         93.72647       66.04797       29.57632
C         94.81527       67.04822       29.88636
O         94.63989       68.25017       29.76764
O         96.02150       66.59622       30.27568
H         93.45015       67.61771       27.56115
H         91.73954       65.74421       28.84637
H         94.11012       65.39946       28.75928
H         93.56590       65.40913       30.47151
N         90.47254       66.86046       30.76117
C         89.72893       67.49087       31.84777
C         90.49165       67.36670       33.15836
O         90.82501       66.25561       33.54630
C         88.33592       66.84169       31.99009
C         87.42215       67.67194       32.90695
C         86.02501       67.05121       33.01409
C         85.08155       67.97015       33.80143
N         83.74721       67.38499       33.91542
H         90.06886       66.02273       30.31412
H         89.56007       68.55651       31.57275
H         88.43100       65.79531       32.35693
H         87.85668       66.81464       30.98635
H         87.32967       68.69073       32.46838
H         87.86252       67.76364       33.92383
H         86.10084       66.06216       33.51669
H         85.60442       66.90459       31.99515
H         85.00430       68.94859       33.27493
H         85.49128       68.14567       34.81986
H         83.79522       66.48973       34.45351
H         83.12491       68.05406       34.42405
H         83.34733       67.20767       32.96532
N         90.77673       68.47073       33.90325
C         91.53812       68.43404       35.15485
C         91.56741       69.81526       35.80283
O         91.82874       70.78539       35.10857
C         92.97920       67.90826       34.93835
C         93.67402       68.50923       33.74668
O         94.04447       67.78028       32.84148
O         93.86847       69.83427       33.63914
H         90.43154       69.38024       33.55972
H         91.05593       67.73058       35.86045
H         92.93487       66.81015       34.77666
H         93.57717       68.06818       35.86235
N         91.37266       70.01797       37.13837
C         91.16327       68.98183       38.13652
C         89.78602       68.37464       38.09729
O         88.99488       68.68308       37.21631
H         91.46062       70.98423       37.49124
H         91.24349       69.46203       39.13662
H         91.95620       68.20635       38.07330
N         89.41644       67.52795       39.09853
C         88.05721       67.03053       39.25214
C         87.09310       68.20295       39.39183
O         86.15069       68.27630       38.61537
C         87.96170       65.98797       40.40296
C         88.43796       66.42128       41.76728
O         87.83067       67.26159       42.40847
O         89.50689       65.81601       42.32158
H         90.12208       67.27476       39.80771
H         87.77285       66.46438       38.33557
H         88.59222       65.12297       40.10043
H         86.91722       65.61712       40.49021
N         87.28132       69.17900       40.32755
C         86.36790       70.29974       40.48612
C         86.45527       71.34164       39.38446
O         85.62835       72.24250       39.39582
H         88.08196       69.12037       40.97074
H         86.59763       70.83035       41.43549
H         85.33279       69.90326       40.56783
N         87.45171       71.34016       38.45013
C         87.60259       72.37353       37.42447
C         88.87920       73.16366       37.70072
O         89.60300       72.82375       38.62949
C         87.63240       71.71972       36.01214
C         86.41243       70.83144       35.76099
O         87.66108       72.71085       35.01774
H         88.17416       70.61168       38.49228
H         86.75087       73.08757       37.46645
H         88.54953       71.08812       35.94308
H         88.04806       72.30002       34.20088
H         85.47521       71.42163       35.83889
H         86.48088       70.40285       34.73904
H         86.38042       69.99126       36.48380
N         89.22893       74.23648       36.93266
C         90.47896       74.96658       37.13010
C         90.53942       75.73429       38.44927
O         91.61583       76.22726       38.75270
C         90.84684       75.86425       35.90564
C         89.78065       76.95039       35.59826
C         91.13266       74.96501       34.68449
C         90.21285       77.92543       34.49859
H         88.61497       74.50231       36.15511
H         91.29271       74.20840       37.19824
H         91.80311       76.37904       36.14997
H         89.59519       77.54619       36.51699
H         88.82132       76.49044       35.28435
H         91.52359       75.55023       33.82944
H         91.91926       74.22121       34.93787
H         90.22262       74.41768       34.36260
H         89.42191       78.69013       34.34956
H         91.15440       78.43884       34.78622
H         90.35759       77.40965       33.52763
N         89.47503       75.83746       39.30661
C         89.60722       76.42296       40.64389
C         88.71235       77.63012       40.84804
O         87.87816       77.93013       40.00738
C         89.35091       75.33931       41.72784
C         87.92986       74.75813       41.69630
O         90.26487       74.28585       41.56772
H         88.56254       75.44996       39.03444
H         90.64343       76.79355       40.79358
H         89.48283       75.78573       42.74098
H         91.13136       74.59828       41.93838
H         87.72355       74.23769       40.73842
H         87.81533       74.01368       42.51296
H         87.17293       75.55603       41.84837
N         88.87728       78.38549       41.97546
C         88.07431       79.55353       42.30619
C         88.94561       80.80203       42.28749
O         88.64954       81.70674       41.51777
C         87.37352       79.32782       43.67741
C         86.48582       80.51329       44.07678
O         88.32067       79.09070       44.68797
H         89.62453       78.12182       42.63431
H         87.27080       79.69470       41.54884
H         86.73002       78.42389       43.56817
H         87.83704       78.69762       45.46068
H         85.71018       80.69204       43.30358
H         85.97727       80.29300       45.04001
H         87.09229       81.43459       44.20915
N         90.00834       80.93798       43.13048
C         90.80705       82.15211       43.23766
C         92.29645       81.86701       43.11658
O         92.77138       80.87725       43.65853
C         90.53385       82.85498       44.58762
C         90.76952       81.96401       45.82136
C         90.79853       82.78957       47.10778
C         91.09910       81.89064       48.31479
N         91.33322       82.69026       49.51506
H         90.23512       80.16682       43.77293
H         90.52521       82.89557       42.45884
H         89.48400       83.22199       44.61744
H         91.20130       83.74467       44.63340
H         91.75696       81.47086       45.74906
H         89.98251       81.17999       45.87703
H         89.83619       83.32575       47.25921
H         91.61484       83.53885       47.01097
H         92.01226       81.28648       48.11317
H         90.24862       81.19194       48.48015
H         91.53046       82.05051       50.31799
H         92.16645       83.30670       49.36878
H         90.49488       83.27459       49.73396
N         93.11848       82.79263       42.54507
C         94.57264       82.70726       42.61612
C         95.11263       81.43895       41.96011
O         95.81602       80.71150       42.64662
C         95.23147       84.00617       42.09069
C         96.74304       84.04440       42.37249
C         97.33798       85.36241       41.96512
O         97.92123       86.15226       42.88771
O         97.30225       85.72222       40.79928
H         92.69461       83.63419       42.12318
H         94.84210       82.67237       43.69773
H         94.77014       84.86291       42.63159
H         95.04324       84.15731       41.01234
H         97.26080       83.22798       41.82597
H         96.91292       83.90266       43.46269
N         94.84420       81.05324       40.67861
C         93.97136       81.75435       39.76284
H         92.94577       81.81950       40.17927
H         94.36172       82.75960       39.52841
H         93.90965       81.19114       38.80763
H         95.26427       80.17255       40.34167
Ca        94.60169       70.61259       31.64898
O         97.07861       68.99165       31.87261
H         97.47677       69.28923       32.72852
H         97.74078       68.36094       31.49406
O         91.78559       71.75165       32.29885
H         92.40474       72.17203       32.94722
H         91.81299       72.35081       31.51191
O         95.98974       72.92498       32.50624
H         95.79941       73.86958       32.28111
H         96.19654       72.93042       33.47419

Ca 1.0



