%chk=apoCaM-CA-Ng.loop2.water4.frame777.chk
%nprocshared=20
%mem=10GB
%nosave
#b3lyp/svp scf=(tight,noincore,xqc) Test 
#IOP(5/87=12) Density=Current Pop=(MK,readradii) iop(6/33=2) iop(6/42=6)

apoCaM-CA-Ng.loop2.water4.frame777 

   -2  1 
C        105.51664      106.90995        3.32330
C        107.01646      106.89929        3.27341
O        107.59501      107.87073        2.80860
H        105.17131      107.75723        3.95234
H        105.11299      107.03029        2.29638
H        105.11727      105.96670        3.75196
N        107.71629      105.83217        3.75205
C        109.16944      105.75378        3.74786
C        109.64289      105.75886        5.18899
O        110.22009      104.79052        5.66340
C        109.60726      104.50792        2.94967
C        111.10261      104.42756        2.79952
O        111.71243      105.31859        2.22907
O        111.77438      103.36334        3.27816
H        107.19717      105.03893        4.16009
H        109.61536      106.64183        3.24647
H        109.16709      104.55702        1.93001
H        109.22484      103.58995        3.44717
N        109.43009      106.87545        5.93872
C        109.86336      107.01360        7.32579
C        108.86232      107.84987        8.11073
O        108.03213      108.49892        7.48939
C        111.21515      107.73270        7.31498
H        109.02045      107.69427        5.46275
H        109.96899      106.01032        7.78824
H        111.94909      107.13768        6.73240
H        111.10938      108.72967        6.83303
H        111.62387      107.88319        8.32945
N        108.86689      107.96503        9.47079
C        109.65782      107.18508       10.43279
C        109.23182      105.71616       10.45643
O        108.29683      105.34906        9.75644
C        109.42325      107.78217       11.85663
C        107.96330      107.73101       12.27297
O        107.06900      107.15747       11.43899
O        107.59829      108.23538       13.32230
H        108.20708      108.66428        9.84866
H        110.73625      107.26492       10.20276
H        109.75049      108.84475       11.84390
H        110.03928      107.25389       12.61492
N        109.82324      104.83937       11.31769
C        109.27601      103.52140       11.60782
C        110.19345      102.39360       11.20815
O        111.22771      102.65182       10.60812
H        110.64383      105.14322       11.86458
H        108.30887      103.37197       11.09873
H        109.09326      103.48003       12.70242
N        109.91457      101.09058       11.51779
C        108.75750      100.64675       12.30654
C        107.44585      100.77385       11.51220
O        107.48820      101.18459       10.36082
C        109.01839       99.19208       12.78720
C        108.16690       98.77068       13.96014
N        108.25280       99.42886       15.14253
O        107.41189       97.81642       13.85136
H        110.61823      100.38601       11.24293
H        108.71296      101.28192       13.21488
H        110.06505       99.11402       13.15486
H        108.90714       98.49240       11.92959
H        108.90123      100.22137       15.26203
H        107.68089       99.13977       15.94962
N        106.24320      100.41361       12.05650
C        104.96637      100.51126       11.35372
C        103.88020      101.22061       12.15856
O        102.76054      101.28672       11.67104
H        106.22217      100.00855       12.99859
H        104.60361       99.47749       11.16653
H        105.07959      101.01124       10.36767
N        104.10956      101.72907       13.40590
C        103.06654      102.30255       14.26130
C        102.44557      103.55552       13.65601
O        103.15627      104.47802       13.28273
C        103.60417      102.57622       15.68217
C        103.94884      101.25641       16.39250
O        104.73254      103.40754       15.62262
H        105.05879      101.66645       13.79453
H        102.26077      101.54498       14.38678
H        102.79357      103.07444       16.26335
H        104.89505      103.73802       16.54389
H        104.29792      101.45971       17.42531
H        103.04342      100.61359       16.45528
H        104.74123      100.69418       15.85589
N        101.09015      103.61663       13.51158
C        100.38785      104.67269       12.78997
C        100.25372      105.93712       13.64503
O         99.74775      105.86411       14.75553
C         98.96893      104.19848       12.31185
C         98.40606      105.22815       11.28859
C         99.02109      102.79876       11.64915
C         96.97104      104.97364       10.82968
H        100.54411      102.82098       13.86486
H        100.95593      104.87159       11.85285
H         98.29624      104.13265       13.19540
H         99.05018      105.21794       10.38519
H         98.42474      106.24806       11.72565
H         99.69830      102.80320       10.76951
H         99.35876      102.00762       12.34398
H         98.01376      102.46590       11.33606
H         96.86881      104.00442       10.30352
H         96.28091      105.00760       11.69685
H         96.67868      105.76454       10.10612
N        100.59909      107.14552       13.12466
C        100.41062      108.44380       13.75548
C         99.33154      109.20606       13.00077
O         98.38275      109.63431       13.64273
C        101.73154      109.23308       13.76053
C        102.77608      108.54319       14.59154
O        102.56023      108.32939       15.90399
O        103.82812      108.18560       14.08714
H        100.96002      107.15809       12.17916
H        100.07135      108.33187       14.81037
H        101.56007      110.24288       14.19365
H        102.09755      109.36349       12.71867
N         99.38761      109.39190       11.64201
C         98.31983      110.04497       10.87997
C         98.70143      110.17105        9.38556
O         97.96269      109.67056        8.54703
C         97.00419      109.20859       11.02012
C         95.72403      109.80724       10.46424
C         95.58243      111.16522       10.10844
C         94.61400      108.95396       10.32486
C         94.35725      111.64562        9.62988
C         93.39881      109.43579        9.83199
C         93.26892      110.78166        9.48797
H        100.21086      109.04469       11.13439
H         98.17665      111.06024       11.30654
H         96.77016      108.96374       12.07304
H         97.19491      108.23649       10.51457
H         96.39734      111.86614       10.21085
H         94.69414      107.90660       10.59049
H         94.24929      112.69104        9.37063
H         92.55665      108.76471        9.72048
H         92.32388      111.15482        9.11415
N         99.82331      110.83181        8.95087
C        100.15625      111.02945        7.53925
C        100.27451      109.76693        6.70051
O        100.23235      109.87246        5.48230
C        101.53332      111.69703        7.58852
C        101.44666      112.49989        8.86449
C        100.76452      111.51452        9.81148
H         99.37148      111.69621        7.11537
H        102.31195      110.91678        7.76659
H        101.80589      112.26169        6.67141
H        102.41258      112.90208        9.23597
H        100.74930      113.34646        8.67213
H        101.48587      110.76775       10.20931
H        100.28289      112.08276       10.63449
N        100.50403      108.55327        7.27627
C        100.67211      107.32645        6.50226
C         99.39318      107.06212        5.73247
O         99.43238      106.95942        4.51438
C        101.05053      106.06144        7.33892
C        102.24781      106.22084        8.32230
C        101.81939      106.77458        9.66129
O        102.67389      107.02613       10.67793
O        100.63390      106.95723        9.87369
H        100.58854      108.53805        8.28858
H        101.51939      107.48375        5.79654
H        101.33456      105.29304        6.58596
H        100.17914      105.63811        7.88555
H        103.03867      106.83673        7.84668
H        102.66880      105.21652        8.54249
N         98.20254      107.00481        6.39370
C         96.94001      106.83918        5.70808
H         96.10485      106.88162        6.44039
H         96.79864      107.66031        4.97229
H         96.91304      105.86063        5.18622
H         98.18567      107.12352        7.41842
Ca       104.83840      106.93279       11.29163
O        105.65159      103.78402       11.68715
H        106.23111      103.62804       12.47470
H        106.13758      104.45472       11.14724
O        105.59687      107.07006        8.43388
H        105.74692      107.88767        8.97221
H        106.02788      106.34558        8.95218
O        104.22716      109.75113       11.04600
H        104.34839      110.51851       11.65904
H        104.69174      110.01614       10.21321
O        106.30832      105.75964       14.16100
H        106.72705      106.25698       14.90718
H        105.38438      105.58833       14.46786

Ca 1.0



