%chk=apoCaM-CA-Ng.loop4.water5.frame10.chk
%nprocshared=20
%mem=10GB
%nosave
#b3lyp/svp scf=(tight,noincore,xqc) Test 
#IOP(5/87=12) Density=Current Pop=(MK,readradii) iop(6/33=2) iop(6/42=6)

apoCaM-CA-Ng.loop4.water5.frame10 

   -3  1 
C         77.96395       25.62550       81.04535
C         79.31388       25.26716       81.58425
O         80.08748       26.16529       81.86508
H         77.17783       25.24418       81.72908
H         77.85837       26.72927       80.95978
H         77.83339       25.17586       80.03952
N         79.65159       23.96057       81.78273
C         80.93418       23.49530       82.30973
C         81.24823       24.14064       83.65064
O         82.31731       24.70161       83.81011
C         82.06524       23.55693       81.23700
C         82.31196       24.91973       80.65126
O         82.77970       25.92413       81.41230
O         82.02710       25.13664       79.48479
H         78.93734       23.24349       81.58363
H         80.82617       22.40888       82.52714
H         81.75198       22.88443       80.40746
H         83.01399       23.15053       81.65022
N         80.32643       24.07242       84.65978
C         80.48221       24.52348       86.04784
C         81.38082       23.56691       86.82206
O         80.87265       22.89756       87.71207
C         80.88846       26.01740       86.20035
C         80.96733       26.45950       87.68884
C         79.94012       26.94154       85.41534
C         79.66477       26.33466       88.48904
H         79.41854       23.63779       84.43229
H         79.47181       24.42298       86.50301
H         81.90641       26.15509       85.78370
H         81.28602       27.51983       87.72105
H         81.74890       25.86616       88.21037
H         78.89136       26.84227       85.76083
H         80.25618       28.00143       85.52540
H         79.96846       26.69777       84.33707
H         78.85020       26.93423       88.03885
H         79.33805       25.27868       88.56653
H         79.83358       26.70995       89.52014
N         82.70016       23.40001       86.52154
C         83.51065       22.36644       87.14575
C         83.80761       22.67446       88.60531
O         83.37889       21.88625       89.43603
C         84.80080       22.07835       86.34078
C         84.52697       21.59930       84.93480
O         85.46388       21.32216       84.20406
O         83.26837       21.46282       84.46991
H         83.12579       23.95149       85.77326
H         82.93341       21.41251       87.10595
H         85.37341       21.28088       86.86252
H         85.44345       22.97425       86.27120
N         84.55879       23.72757       89.04817
C         85.15490       24.78834       88.24964
C         86.65943       24.61226       88.18107
O         87.14596       23.57292       88.60674
H         84.75673       23.76975       90.06095
H         84.90751       25.74508       88.75092
H         84.74636       24.83748       87.22534
N         87.50195       25.56204       87.68021
C         87.09650       26.89073       87.21738
C         86.33481       26.81126       85.89685
O         86.45276       25.80016       85.21895
C         88.35897       27.77092       87.00316
C         89.11782       28.03385       88.28050
O         89.27358       29.29799       88.71726
O         89.61775       27.11843       88.91437
H         88.50757       25.33121       87.69045
H         86.47181       27.35841       88.00453
H         88.08361       28.75362       86.58133
H         89.03629       27.28533       86.26609
N         85.57658       27.84079       85.40282
C         85.22683       29.06444       86.11561
C         84.29514       28.79925       87.27668
O         83.89681       27.66352       87.48627
H         85.19926       27.73854       84.45043
H         84.69642       29.75550       85.42560
H         86.13323       29.58854       86.46514
N         83.93030       29.82149       88.10044
C         83.12394       29.63673       89.30309
C         81.93763       30.59082       89.26708
O         81.83460       31.44510       90.14066
C         84.01511       29.92984       90.53595
C         85.30839       29.09599       90.56793
C         86.19157       29.44294       91.74417
N         87.40258       28.85508       91.87079
O         85.83187       30.26311       92.57744
H         84.30277       30.76517       87.90849
H         82.75239       28.59245       89.38600
H         83.42755       29.74242       91.46238
H         84.31380       31.00265       90.51253
H         85.89588       29.30511       89.64849
H         85.06269       28.01289       90.59622
H         87.73052       28.17247       91.17215
H         88.01931       29.09362       92.66166
N         81.02181       30.55847       88.25155
C         80.02596       31.62715       88.11009
C         80.78812       32.92900       87.89148
O         81.93383       32.85619       87.48058
C         79.00807       31.33339       86.97052
C         78.02248       32.49520       86.74967
C         78.19774       30.06784       87.29651
H         81.09349       29.82568       87.53092
H         79.45874       31.70088       89.06646
H         79.56364       31.17164       86.02164
H         77.29898       32.23896       85.94680
H         77.45367       32.71420       87.67918
H         78.55578       33.41190       86.42395
H         77.48408       29.84111       86.47599
H         78.86206       29.19211       87.41807
H         77.62025       30.20592       88.23732
N         80.27420       34.12021       88.31689
C         81.00296       35.38840       88.40204
C         81.30851       36.06805       87.06711
O         80.83524       37.18248       86.88789
C         82.27900       35.23648       89.26777
C         82.96646       36.55428       89.53379
N         82.34211       37.53914       90.22086
O         84.10819       36.72788       89.13381
H         79.32574       34.11069       88.72276
H         80.33070       36.08611       88.95228
H         83.00375       34.56324       88.76670
H         82.00981       34.78061       90.24518
H         81.38574       37.41039       90.58081
H         82.82209       38.43298       90.40309
N         82.14024       35.52850       86.12626
C         82.63223       36.27396       84.97915
C         82.15992       35.67899       83.66658
O         82.58421       34.58903       83.30624
C         84.17775       36.24864       85.02351
C         84.81670       36.96242       83.85932
C         85.48711       36.22808       82.86510
C         84.75321       38.35937       83.75745
C         86.07871       36.88197       81.78286
C         85.35899       39.01368       82.68007
C         86.02034       38.27911       81.68881
O         86.59558       38.92390       80.65426
H         82.52774       34.59271       86.24620
H         82.28975       37.33005       85.02944
H         84.49276       35.18024       85.01219
H         84.55445       36.68133       85.97542
H         85.54182       35.14741       82.91908
H         84.24745       38.93988       84.51873
H         86.58284       36.30132       81.02039
H         85.31517       40.09317       82.61671
H         87.06235       38.45097       79.95036
N         81.33155       36.40524       82.86276
C         81.07232       36.11344       81.46053
C         80.61064       34.68167       81.23966
O         81.26924       33.94499       80.51722
C         82.34161       36.49422       80.65818
C         82.10626       36.57514       79.14281
C         83.36000       37.02367       78.44759
O         83.37289       38.06807       77.81563
O         84.47787       36.27583       78.51978
H         80.93849       37.28743       83.22528
H         80.26744       36.80221       81.11827
H         83.16893       35.78915       80.89380
H         82.65736       37.51077       80.98631
H         81.29233       37.30760       78.94346
H         81.80156       35.59399       78.72712
N         79.47636       34.21831       81.83706
C         78.98566       32.85711       81.64028
C         77.62306       32.85384       80.94271
O         77.11977       31.77836       80.65235
C         78.92488       32.15057       83.01444
C         78.82921       30.61617       82.92653
C         80.11568       30.01999       82.42510
O         80.15181       29.29064       81.29437
O         81.13759       30.16300       83.07616
H         78.94488       34.85273       82.45349
H         79.69161       32.29798       80.98940
H         78.06246       32.56033       83.58263
H         79.84304       32.38544       83.59835
H         77.97594       30.29414       82.30053
H         78.65423       30.20412       83.94306
N         76.96508       34.01176       80.63148
C         75.66559       34.04434       79.99020
H         74.94550       34.56905       80.65305
H         75.74214       34.60038       79.03292
H         75.26658       33.03058       79.77792
H         77.37699       34.92717       80.85526
Ca        81.97787       27.99081       80.98471
O         82.56244       27.86648       83.83238
H         83.16277       27.08358       83.77805
H         82.72828       28.25124       84.72824
O         85.37562       27.68821       80.52012
H         85.30443       26.70650       80.41302
H         86.28920       27.83331       80.87339
O         82.86729       30.67354       79.58522
H         82.75150       31.26363       80.37172
H         82.02574       30.77563       79.07371
O         84.29985       29.94513       82.47696
H         83.82622       30.76201       82.77444
H         85.24663       30.10605       82.71681
O         81.00999       28.08991       78.04072
H         80.04753       28.26251       78.19529
H         81.08290       27.10323       78.02197

Ca 1.0



