%chk=apoCaM-CA-Ng.loop1.water1.frame854.chk
%nprocshared=20
%mem=10GB
%nosave
#b3lyp/svp scf=(tight,noincore,xqc) Test 
#IOP(5/87=12) Density=Current Pop=(MK,readradii) iop(6/33=2) iop(6/42=6)

apoCaM-CA-Ng.loop1.water1.frame854 

   0  1 
C         42.77677       41.45097       10.11682
C         41.75770       42.55324       10.04396
O         40.92041       42.54719        9.15373
H         43.79610       41.89115       10.03806
H         42.69334       40.92115       11.08790
H         42.64634       40.72527        9.28747
N         41.82282       43.57196       10.94388
C         40.97963       44.77434       10.92199
C         40.91176       45.36575        9.51374
O         41.93805       45.54444        8.87730
C         41.44793       45.78921       12.00363
C         42.95625       45.88629       12.12582
O         43.72226       46.28105       11.09269
O         43.49656       45.49758       13.15026
H         42.56965       43.49671       11.64962
H         39.93747       44.49164       11.18904
H         41.07661       45.40587       12.98131
H         40.97137       46.78076       11.84312
N         39.68926       45.57850        8.93579
C         39.48757       45.82729        7.50920
C         40.17230       47.05091        6.91785
O         40.31391       47.05966        5.70130
C         37.97592       45.85108        7.14581
C         37.19391       47.00806        7.80829
C         35.72721       47.02951        7.34779
C         34.93876       48.15183        8.04271
N         33.55828       48.20476        7.55909
H         38.85092       45.42571        9.51581
H         39.93396       44.94992        6.98901
H         37.51306       44.88661        7.45109
H         37.87616       45.93457        6.04089
H         37.65888       47.98076        7.53925
H         37.22416       46.89732        8.91291
H         35.24487       46.05479        7.58005
H         35.69756       47.18919        6.24761
H         35.42780       49.13192        7.84749
H         34.93577       47.97489        9.14168
H         33.07483       47.29464        7.73715
H         33.04598       48.96377        8.06453
H         33.54543       48.41658        6.53477
N         40.54701       48.14577        7.64422
C         41.09532       49.32754        6.96838
C         42.54689       49.10852        6.53222
O         43.16334       48.18256        7.03739
C         40.81814       50.62679        7.76633
C         41.32446       50.83505        9.17015
O         41.04878       51.89477        9.70870
O         41.99956       49.93608        9.90274
H         40.34208       48.17384        8.65379
H         40.49967       49.47055        6.04155
H         39.71330       50.72537        7.83468
H         41.17268       51.49311        7.19204
N         43.19276       49.86223        5.58465
C         42.61817       50.92800        4.77187
C         41.64524       50.42707        3.72660
O         41.45212       49.22647        3.59219
H         44.18698       49.64761        5.40636
H         43.43621       51.42402        4.20541
H         42.16724       51.70937        5.39858
N         41.00843       51.32978        2.92447
C         40.09972       50.96118        1.84202
C         40.57126       51.57557        0.52964
O         41.30542       52.55507        0.54966
C         38.68268       51.46130        2.19682
C         37.64401       51.09921        1.17144
O         36.95933       52.06876        0.53444
O         37.40681       49.92842        0.92043
H         41.17206       52.33431        3.09738
H         40.07315       49.85536        1.72698
H         38.70679       52.56752        2.31510
H         38.37406       51.01930        3.16888
N         40.14793       51.06528       -0.66296
C         40.45604       51.68112       -1.94410
C         41.92133       51.68003       -2.32661
O         42.22632       52.27039       -3.35409
H         39.53407       50.23764       -0.66644
H         40.09043       52.73025       -1.92009
H         39.90523       51.14808       -2.74951
N         42.88032       51.03762       -1.59696
C         44.29404       51.05036       -1.96518
C         45.13968       51.64592       -0.85474
O         44.64354       51.87657        0.24104
C         44.77575       49.62721       -2.36285
C         44.55175       48.56235       -1.27628
O         44.16747       49.22187       -3.56404
H         42.60918       50.50957       -0.75597
H         44.45603       51.70837       -2.84719
H         45.86825       49.67400       -2.56020
H         43.18994       49.15668       -3.40699
H         45.05679       48.84849       -0.33067
H         43.46853       48.41640       -1.07931
H         44.96305       47.58912       -1.61843
N         46.43889       51.96928       -1.10885
C         47.34338       52.55753       -0.12875
C         47.63780       53.99969       -0.52779
O         47.46628       54.87791        0.30469
C         48.63384       51.69748        0.02069
C         48.26060       50.20744        0.26164
C         49.49404       52.24922        1.17785
C         49.46077       49.27473        0.43730
H         46.80220       51.80481       -2.06023
H         46.85867       52.57843        0.87462
H         49.22317       51.75665       -0.92150
H         47.69714       49.83639       -0.62149
H         47.60518       50.11375        1.15451
H         49.75592       53.31355        1.00711
H         48.94501       52.16855        2.14169
H         50.45199       51.69899        1.26778
H         50.01419       49.50505        1.37028
H         49.10083       48.22692        0.51720
H         50.14599       49.35035       -0.43297
N         48.00146       54.32469       -1.80732
C         48.20357       55.70346       -2.26217
C         49.53877       55.82935       -2.98930
O         50.17890       54.81948       -3.24476
C         47.02629       56.10992       -3.19020
C         45.68196       56.03564       -2.45255
O         47.20350       57.42178       -3.65857
H         48.06799       53.57646       -2.51160
H         48.22350       56.39572       -1.39226
H         47.00848       55.40283       -4.05353
H         46.65309       57.51323       -4.48029
H         45.68195       56.72944       -1.58425
H         44.85817       56.32766       -3.13768
H         45.47666       55.00567       -2.09386
N         50.03152       57.06025       -3.33049
C         51.29266       57.24743       -4.04040
C         52.31914       57.80988       -3.07917
O         53.27455       57.09476       -2.80287
C         51.07936       58.08524       -5.32518
C         52.38846       58.30041       -6.09323
O         50.50420       59.32861       -5.01795
H         49.51608       57.90211       -3.03683
H         51.68567       56.26024       -4.37439
H         50.37897       57.50374       -5.97119
H         50.04026       59.64331       -5.83787
H         52.18734       58.85874       -7.03192
H         53.10552       58.89005       -5.48597
H         52.85218       57.32582       -6.35300
N         52.19351       59.04117       -2.49753
C         53.11244       59.49160       -1.45580
C         52.36315       59.77011       -0.16959
O         51.13898       59.81527       -0.16644
C         53.93697       60.72911       -1.87412
C         54.76405       60.48432       -3.14767
C         55.94853       61.45724       -3.29366
C         55.57088       62.94409       -3.34412
N         56.77699       63.76921       -3.44865
H         51.40539       59.65346       -2.75554
H         53.84012       58.68490       -1.22125
H         54.64061       60.94201       -1.04082
H         53.28867       61.62226       -2.01543
H         54.09806       60.52065       -4.03614
H         55.21862       59.47137       -3.09525
H         56.50141       61.19377       -4.22172
H         56.63315       61.29727       -2.43171
H         55.02718       63.22834       -2.41720
H         54.91027       63.13663       -4.21734
H         57.29709       63.54160       -4.32720
H         56.50839       64.77921       -3.46449
H         57.39951       63.60236       -2.62371
N         53.06286       59.95064        0.98364
C         52.44004       60.25564        2.26415
C         51.42425       59.18526        2.66722
O         50.27771       59.55869        2.87032
C         53.49868       60.50080        3.36526
C         54.39981       61.70820        3.04647
C         55.39578       61.94237        4.14474
O         56.21809       61.08405        4.42421
O         55.39739       63.10945        4.81611
H         54.08913       59.86151        0.94076
H         51.88404       61.21599        2.15954
H         54.14094       59.61440        3.50479
H         52.97100       60.70638        4.32276
H         53.76854       62.61467        2.92402
H         54.96323       61.54788        2.10393
N         51.69298       57.85011        2.78396
C         52.97054       57.22011        2.53086
H         53.73090       57.55265        3.25761
H         52.87025       56.12073        2.65687
H         53.30244       57.41231        1.49087
H         50.91388       57.22503        3.04540
Ca        43.00138       47.95483        9.81274
O         44.58466       45.44886        7.53374
H         45.02762       44.57664        7.68534
H         43.80890       45.23558        6.95620

Ca 1.0



