%chk=apoCaM-CA-Ng.loop3.water5.frame479.chk
%nprocshared=20
%mem=10GB
%nosave
#b3lyp/svp scf=(tight,noincore,xqc) Test 
#IOP(5/87=12) Density=Current Pop=(MK,readradii) iop(6/33=2) iop(6/42=6)

apoCaM-CA-Ng.loop3.water5.frame479 

   0  1 
C         28.11936       54.52756      110.62435
C         26.97450       53.55856      110.67562
O         25.86350       53.98756      110.94446
H         29.07465       54.01613      110.38320
H         27.92285       55.30124      109.85329
H         28.22607       55.02147      111.61383
N         27.17585       52.22687      110.43533
C         26.13931       51.19302      110.49476
C         25.65939       50.91988      111.93275
O         24.79069       50.07957      112.11291
C         24.99292       51.54166      109.50713
C         24.06537       50.40240      109.16577
O         23.14346       50.59912      108.39045
O         24.25636       49.16217      109.65535
H         28.12591       51.91722      110.17969
H         26.60734       50.24946      110.13566
H         25.44780       51.86457      108.54488
H         24.38820       52.38226      109.90576
N         26.20622       51.56452      113.00740
C         25.81272       51.34830      114.40262
C         25.18110       52.59838      115.00986
O         24.75547       52.55390      116.15568
C         27.05206       50.90345      115.22201
C         28.15440       51.98599      115.31984
C         29.42464       51.45051      115.98756
C         30.51669       52.53254      116.02404
N         31.77461       51.99285      116.53788
H         26.94696       52.25012      112.83806
H         25.05085       50.54064      114.45921
H         27.46851       49.99441      114.73589
H         26.73916       50.62635      116.25277
H         27.77043       52.86386      115.88489
H         28.45603       52.32511      114.31085
H         29.79571       50.58892      115.39062
H         29.20310       51.10418      117.02032
H         30.18231       53.37967      116.66393
H         30.69265       52.92226      114.99598
H         32.11490       51.22827      115.90972
H         32.49189       52.75366      116.55529
H         31.64309       51.62295      117.50664
N         25.11529       53.75864      114.30204
C         24.58651       55.01291      114.80749
C         23.08624       54.93729      115.08904
O         22.36833       54.20543      114.42234
C         24.97022       56.12545      113.80174
C         24.27459       57.40686      114.06567
O         24.86365       58.48646      114.60034
O         23.10475       57.48125      113.75988
H         25.50079       53.77803      113.35430
H         25.10163       55.26709      115.76015
H         24.69566       55.83596      112.76027
H         26.07251       56.26054      113.83035
N         22.55875       55.72097      116.07827
C         21.15175       55.76801      116.44772
C         20.27754       56.27158      115.32257
O         19.37218       55.55217      114.92442
H         23.19997       56.32041      116.61921
H         21.02897       56.45870      117.30980
H         20.82255       54.75709      116.77481
N         20.50455       57.48988      114.74280
C         19.73389       57.98874      113.60382
C         20.45646       57.74143      112.27682
O         20.42731       58.59142      111.39893
C         19.28749       59.46112      113.83013
C         20.42001       60.46176      114.16655
N         19.89384       61.81666      114.28085
O         21.42551       60.46164      113.20721
H         21.28905       58.05594      115.09067
H         18.80864       57.38199      113.49862
H         18.58667       59.47843      114.69174
H         18.72857       59.81334      112.93578
H         19.23116       61.86125      115.08534
H         20.68938       62.46390      114.48643
N         21.05417       56.53478      112.04247
C         21.64187       56.09277      110.78165
C         22.84394       56.85969      110.24370
O         23.39315       56.39956      109.25366
H         21.04504       55.83531      112.79700
H         20.85429       56.07666      109.99881
H         21.98342       55.04346      110.93062
N         23.29495       58.03010      110.77673
C         24.41486       58.78126      110.21630
C         24.41809       60.18105      110.79472
O         24.47931       60.33480      112.00007
C         25.76271       58.08269      110.49164
C         26.91401       58.94433      110.01793
C         27.03249       59.30593      108.66440
C         27.85717       59.42794      110.94064
C         28.06930       60.14472      108.24568
C         28.89411       60.26412      110.51882
C         29.00124       60.62840      109.16928
O         29.98962       61.44416      108.75092
H         22.79629       58.44530      111.56736
H         24.26708       58.87307      109.11829
H         25.80077       57.09546      109.98541
H         25.85199       57.90592      111.58508
H         26.31521       58.95225      107.93502
H         27.78394       59.16950      111.98983
H         28.14285       60.42606      107.20279
H         29.60828       60.63428      111.24338
H         30.64885       61.80702      109.35961
N         24.36476       61.25914      109.97119
C         24.17995       62.61428      110.46662
C         22.72398       62.74948      110.86191
O         22.43182       63.09429      111.99693
C         24.59669       63.64607      109.37663
C         26.09023       63.48241      108.96864
C         24.30929       65.09395      109.81560
C         27.10697       63.68634      110.10094
H         24.37910       61.10486      108.95174
H         24.81777       62.79855      111.35759
H         23.98940       63.46366      108.46205
H         26.32049       64.20891      108.15986
H         26.25201       62.46782      108.54830
H         23.22558       65.23916      109.99944
H         24.85366       65.35503      110.74530
H         24.60522       65.79992      109.01024
H         28.13365       63.56585      109.69735
H         27.03026       64.70387      110.53418
H         26.97931       62.93166      110.90360
N         21.75146       62.44850      109.96032
C         20.32851       62.54015      110.24880
C         19.93533       63.97552      110.51887
O         19.24371       64.22421      111.49612
C         19.50865       61.99619      109.06628
O         19.84605       60.65934      108.80561
H         22.04123       62.12397      109.02434
H         20.07625       61.90533      111.12909
H         19.70484       62.59242      108.15037
H         18.41747       62.07194      109.28044
H         19.42761       60.11488      109.52224
N         20.36319       64.97679      109.69016
C         19.97322       66.37961      109.80975
C         20.33043       67.03571      111.14820
O         19.92442       68.17246      111.34854
C         18.47130       66.50452      109.51845
H         20.98110       64.72972      108.90199
H         20.49041       66.95639      109.01032
H         18.24849       66.06274      108.52259
H         17.86079       65.98448      110.28393
H         18.17136       67.57342      109.48916
N         21.08467       66.41183      112.10163
C         21.34434       66.96928      113.42669
C         22.82091       67.23597      113.62113
O         23.63815       66.43531      113.18823
C         20.84524       65.99700      114.49277
H         21.49197       65.48991      111.90163
H         20.78793       67.92018      113.58147
H         21.37240       65.02413      114.41603
H         21.01885       66.42430      115.50436
H         19.75502       65.82689      114.36589
N         23.22692       68.37239      114.26288
C         24.61707       68.79332      114.41001
C         25.21770       69.01315      113.03382
O         26.31212       68.54089      112.75736
C         25.44387       67.80604      115.28189
C         25.00435       67.76785      116.75329
C         25.35556       69.04736      117.46253
O         26.64280       69.44043      117.54100
O         24.48587       69.72515      117.98441
H         22.50633       69.01173      114.63284
H         24.62359       69.78911      114.90707
H         26.52113       68.08196      115.26223
H         25.36788       66.78439      114.85829
H         25.54999       66.94773      117.26811
H         23.91561       67.55430      116.82309
N         24.51902       69.72749      112.10609
C         25.00688       70.00175      110.77167
H         26.04849       69.64943      110.62212
H         24.35104       69.49908      110.03024
H         24.97843       71.09686      110.59429
H         23.57705       70.07559      112.34225
Ca        23.37690       60.15407      114.35726
O         26.09940       59.66217      116.87782
H         25.70259       58.93398      117.41899
H         26.68469       60.15234      117.50754
O         22.45871       59.32384      117.22007
H         23.03336       58.60329      117.58101
H         21.53413       59.00026      117.36311
O         26.41209       62.06382      114.47806
H         26.34337       63.02962      114.26991
H         27.35800       61.83818      114.29457
O         23.35270       63.22913      114.76583
H         23.89353       62.81466      114.04882
H         23.89347       64.00114      115.06669
O         24.14489       62.06371      117.32505
H         24.26556       61.49735      118.12779
H         25.03306       62.47461      117.17332

Ca 1.0



