%chk=apoCaM-CA-Ng.loop1.water3.frame253.chk
%nprocshared=20
%mem=10GB
%nosave
#b3lyp/svp scf=(tight,noincore,xqc) Test 
#IOP(5/87=12) Density=Current Pop=(MK,readradii) iop(6/33=2) iop(6/42=6)

apoCaM-CA-Ng.loop1.water3.frame253 

   0  1 
C         54.08645       28.52062       -5.73583
C         53.61769       27.10383       -5.58739
O         53.41667       26.64482       -4.47257
H         55.05679       28.54154       -6.27332
H         53.33620       29.09273       -6.32451
H         54.20378       29.00807       -4.74559
N         53.38156       26.36134       -6.70040
C         52.81058       25.02062       -6.66278
C         53.82876       23.93992       -6.28439
O         53.44000       22.79097       -6.29068
C         52.20856       24.66170       -8.04837
C         51.12265       25.60375       -8.50720
O         51.36520       26.77800       -8.73288
O         49.87658       25.13937       -8.71651
H         53.53279       26.81482       -7.61429
H         51.96229       25.00413       -5.94046
H         51.74614       23.65770       -7.98049
H         53.00977       24.62595       -8.81803
N         55.14012       24.18237       -6.00137
C         56.12588       23.10184       -5.86001
C         56.84112       23.10743       -4.51948
O         57.28048       24.17378       -4.11364
C         57.16872       23.25597       -6.97866
C         56.61710       22.75681       -8.32042
C         57.63705       22.97474       -9.43839
C         57.25833       22.17615      -10.69022
N         58.19931       22.44116      -11.77685
H         55.48334       25.15281       -5.97238
H         55.66209       22.11576       -5.98768
H         58.05602       22.62357       -6.75350
H         57.51025       24.31357       -7.03327
H         55.66176       23.25812       -8.59011
H         56.41962       21.66813       -8.20976
H         58.64082       22.62636       -9.11030
H         57.69164       24.06316       -9.66132
H         56.22814       22.43208      -11.02160
H         57.28608       21.09097      -10.43794
H         57.97804       21.81333      -12.58272
H         58.10898       23.43653      -12.08468
H         59.18045       22.25687      -11.46376
N         57.12997       21.96418       -3.80376
C         56.76200       20.57275       -4.11870
C         57.24258       20.13310       -5.49621
O         56.41962       19.84357       -6.35239
C         55.26014       20.31020       -3.84199
C         54.96291       20.43722       -2.36576
O         55.94706       20.77647       -1.50530
O         53.83981       20.21380       -1.94703
H         57.70370       22.08706       -2.95470
H         57.28091       19.88901       -3.41056
H         55.01331       19.26571       -4.13202
H         54.60322       20.98712       -4.42294
N         58.56629       20.00451       -5.79807
C         59.62764       20.14288       -4.80787
C         61.01433       19.93945       -5.38994
O         61.15906       19.93014       -6.60423
H         58.80317       19.72346       -6.76189
H         59.45868       19.38590       -4.03251
H         59.59875       21.14589       -4.33482
N         62.12363       19.81868       -4.60364
C         62.10767       19.70555       -3.14531
C         61.61924       18.33340       -2.69594
O         61.92000       17.34823       -3.35765
C         63.51299       19.95615       -2.53873
C         64.56194       18.92719       -2.89435
O         65.13910       18.19851       -1.91977
O         64.91765       18.76410       -4.05000
H         63.03119       19.80478       -5.08949
H         61.46245       20.50911       -2.72675
H         63.40935       19.96614       -1.43081
H         63.87197       20.96071       -2.84905
N         60.97374       18.18374       -1.50202
C         60.65422       16.88177       -0.92916
C         59.62073       16.07968       -1.68898
O         59.38879       14.94491       -1.29705
H         60.77678       19.02044       -0.93308
H         60.27054       17.01622        0.10513
H         61.59231       16.28740       -0.86779
N         58.95074       16.58379       -2.76293
C         57.97601       15.81993       -3.52893
C         58.47105       15.67954       -4.96529
O         59.42311       16.34706       -5.34668
C         56.59312       16.52540       -3.45488
C         56.15159       16.76201       -2.00033
O         55.62184       15.74993       -4.10619
H         59.12368       17.54744       -3.05586
H         57.87764       14.79640       -3.10786
H         56.68400       17.51267       -3.96174
H         54.79647       16.30001       -4.15193
H         56.87818       17.40715       -1.46310
H         55.16997       17.28292       -1.98002
H         56.05342       15.79559       -1.46286
N         57.86564       14.80658       -5.81622
C         58.22554       14.65650       -7.22776
C         57.05325       15.08550       -8.09851
O         57.04272       14.79446       -9.28783
C         58.69176       13.20015       -7.52905
C         57.55468       12.15613       -7.35804
C         59.92628       12.86853       -6.67058
C         57.97490       10.73246       -7.72898
H         57.08319       14.24045       -5.45811
H         59.07513       15.32020       -7.50224
H         59.01600       13.17208       -8.59429
H         56.71402       12.43023       -8.03104
H         57.17544       12.14678       -6.31600
H         60.36562       11.89277       -6.95839
H         60.71610       13.63433       -6.82646
H         59.66276       12.84116       -5.59212
H         58.36709       10.69933       -8.76767
H         58.74468       10.34812       -7.02945
H         57.09526       10.05873       -7.65944
N         56.05459       15.84296       -7.56844
C         54.85892       16.26165       -8.27998
C         54.21940       17.42408       -7.55267
O         54.21525       17.45541       -6.32801
C         53.84388       15.09975       -8.44098
C         53.43566       14.47220       -7.10143
O         54.37488       14.09334       -9.26034
H         56.16576       16.17973       -6.60390
H         55.14521       16.63644       -9.28821
H         52.91299       15.49784       -8.91226
H         54.28824       14.41320      -10.19675
H         52.96108       15.22021       -6.43343
H         52.69807       13.66139       -7.27863
H         54.31958       14.03743       -6.58760
N         53.66021       18.43581       -8.26006
C         53.09880       19.61535       -7.62071
C         52.02083       19.27717       -6.59385
O         51.58866       18.13898       -6.47703
C         52.57553       20.61548       -8.68675
C         51.42780       20.05139       -9.53757
O         53.63981       20.99944       -9.51991
H         53.67130       18.37229       -9.28911
H         53.92095       20.11071       -7.05927
H         52.19030       21.50681       -8.15787
H         53.40869       21.88863       -9.89758
H         51.08188       20.82639      -10.25360
H         51.74980       19.16620      -10.12277
H         50.56881       19.76468       -8.89579
N         51.54474       20.28068       -5.81585
C         50.48585       20.16854       -4.83799
C         50.91820       20.85793       -3.54193
O         50.93481       20.20480       -2.50830
C         49.19495       20.69652       -5.50736
C         49.20573       22.18461       -5.92079
C         48.31120       22.48386       -7.12889
C         46.85451       22.03911       -6.99632
N         46.12283       22.37071       -8.21991
H         51.90711       21.21187       -5.98368
H         50.28037       19.09581       -4.61941
H         48.29999       20.49630       -4.87962
H         49.09344       20.07972       -6.42916
H         50.20203       22.49481       -6.28609
H         48.94602       22.80997       -5.03915
H         48.75033       21.96735       -8.01254
H         48.34692       23.57751       -7.31766
H         46.38137       22.54029       -6.12510
H         46.81260       20.93846       -6.84331
H         46.57400       21.91122       -9.04569
H         45.13967       22.02699       -8.14098
H         46.11464       23.40693       -8.36281
N         51.30817       22.17069       -3.53335
C         51.74945       22.90870       -2.35625
C         50.70638       23.95893       -2.05667
O         50.46129       24.81520       -2.89651
C         53.12922       23.56104       -2.63962
C         53.67509       24.51441       -1.55658
C         53.93336       23.86340       -0.22764
O         52.91670       23.36631        0.49902
O         55.06487       23.83825        0.22926
H         51.28383       22.70661       -4.40799
H         51.84383       22.22730       -1.48472
H         53.04486       24.16222       -3.56841
H         53.87992       22.77460       -2.83601
H         52.97794       25.36566       -1.40848
H         54.63389       24.93271       -1.93810
N         50.03448       23.93407       -0.87277
C         48.99739       24.88121       -0.52440
H         48.05207       24.32990       -0.33853
H         49.28945       25.42168        0.39928
H         48.81556       25.62518       -1.32799
H         50.25431       23.20137       -0.18137
Ca        55.78931       21.00261        0.72704
O         55.45856       21.63106        3.60021
H         55.55524       20.73181        4.00322
H         54.49241       21.83476        3.67349
O         53.10613       20.18168        1.42124
H         52.50311       20.87029        1.04617
H         53.43967       19.69019        0.62934
O         56.48787       18.10638        1.43349
H         56.14376       18.45342        2.29490
H         57.47255       18.11556        1.53744

Ca 1.0



