%chk=apoCaM-CA-Ng.loop3.water5.frame345.chk
%nprocshared=20
%mem=10GB
%nosave
#b3lyp/svp scf=(tight,noincore,xqc) Test 
#IOP(5/87=12) Density=Current Pop=(MK,readradii) iop(6/33=2) iop(6/42=6)

apoCaM-CA-Ng.loop3.water5.frame345 

   0  1 
C         88.14224       76.99243       32.41551
C         88.72630       77.19140       31.04793
O         88.41168       76.41595       30.16037
H         87.03596       77.05977       32.36572
H         88.42998       75.98839       32.79351
H         88.51474       77.75528       33.13145
N         89.60041       78.21031       30.81042
C         90.27367       78.45591       29.53771
C         91.18812       77.28826       29.19376
O         91.11416       76.74964       28.09682
C         89.27018       78.78775       28.40224
C         88.40087       79.98588       28.68588
O         88.51671       80.68296       29.83338
O         87.57631       80.33555       27.85674
H         89.83252       78.84744       31.58793
H         90.93476       79.34185       29.66981
H         88.61050       77.91720       28.20792
H         89.83876       78.99645       27.46980
N         92.08788       76.84246       30.11947
C         93.03039       75.74915       29.87133
C         92.35241       74.41921       29.55896
O         93.05704       73.49226       29.18112
C         93.93892       75.52208       31.10128
C         94.85910       76.70832       31.41688
C         95.69349       76.40542       32.66836
C         96.68941       77.53196       32.96243
N         97.46824       77.23557       34.16452
H         92.10438       77.31701       31.03467
H         93.65486       76.02522       28.99273
H         94.59341       74.64095       30.91732
H         93.29527       75.29635       31.98194
H         94.27139       77.63311       31.59565
H         95.53172       76.87654       30.54779
H         96.25918       75.45966       32.51816
H         95.01168       76.27700       33.53865
H         96.14265       78.49027       33.10542
H         97.37962       77.64435       32.09674
H         97.98880       76.33601       34.04522
H         98.15670       78.00562       34.32524
H         96.83495       77.16805       34.99434
N         91.01467       74.22333       29.72759
C         90.36489       72.94098       29.47142
C         90.46301       72.56973       27.98959
O         90.85385       73.39997       27.17953
C         88.91334       73.02696       30.00999
C         88.12085       71.75203       30.00738
O         87.76797       71.18392       31.17543
O         87.71793       71.27050       28.96426
H         90.44767       74.98970       30.10790
H         90.90508       72.17141       30.06685
H         88.35138       73.81326       29.46662
H         88.98804       73.34902       31.07263
N         90.16850       71.30695       27.57448
C         90.27259       70.85427       26.19687
C         89.37264       71.62922       25.26350
O         89.85600       72.14439       24.26569
H         89.89180       70.60544       28.27410
H         89.97024       69.78484       26.15672
H         91.32884       70.92201       25.85595
N         88.04595       71.75653       25.53701
C         87.09317       72.44911       24.67087
C         86.61559       73.75440       25.29527
O         85.76996       74.41623       24.70908
C         85.92113       71.48589       24.38424
C         85.12367       71.18351       25.66612
N         83.89391       71.96287       25.75316
O         84.83101       69.82654       25.78226
H         87.69346       71.35131       26.41629
H         87.56810       72.70745       23.69933
H         86.36685       70.54689       23.98637
H         85.24208       71.88161       23.59750
H         84.07854       72.97961       25.63630
H         83.50796       71.84101       26.71296
N         87.13749       74.20746       26.46777
C         86.68065       75.40164       27.14634
C         85.42005       75.14176       27.94004
O         84.47843       75.91582       27.86106
H         87.91724       73.70362       26.91285
H         86.61356       76.27041       26.45608
H         87.44619       75.65603       27.90769
N         85.39297       74.08552       28.79975
C         84.38202       73.84604       29.82256
C         83.67631       72.51715       29.59378
O         84.30060       71.56253       29.15360
C         85.13256       73.85999       31.17242
C         84.30586       73.54287       32.39279
C         83.22042       74.34937       32.76920
C         84.65041       72.43835       33.19180
C         82.49375       74.05347       33.92886
C         83.92598       72.14620       34.34732
C         82.84463       72.95412       34.72168
O         82.13994       72.68402       35.83875
H         86.19292       73.43898       28.78487
H         83.62007       74.65599       29.83299
H         85.59170       74.86342       31.31221
H         85.96448       73.12962       31.10951
H         82.94151       75.20795       32.17205
H         85.48805       71.80488       32.92746
H         81.65884       74.68056       34.21370
H         84.21029       71.29395       34.95187
H         82.35725       71.93582       36.41364
N         82.36306       72.38211       29.94380
C         81.59355       71.15287       29.75598
C         81.31485       70.96346       28.26961
O         81.63592       69.90871       27.74106
C         80.26843       71.17989       30.58887
C         80.50932       71.39781       32.11185
C         79.44221       69.89122       30.39456
C         81.27596       70.27573       32.82697
H         81.89639       73.19156       30.37841
H         82.17776       70.28737       30.13809
H         79.65373       72.03539       30.23061
H         79.52292       71.50307       32.61438
H         81.05176       72.34748       32.27479
H         78.50123       69.94256       30.98286
H         79.16049       69.74721       29.34556
H         80.01184       68.98817       30.69328
H         80.72654       69.31365       32.77763
H         82.29212       70.14455       32.40417
H         81.38034       70.53074       33.90169
N         80.74797       71.95891       27.51991
C         80.49222       71.80826       26.08490
C         79.36508       70.83167       25.78933
O         79.27244       70.36830       24.66264
C         80.20531       73.16120       25.42071
O         79.04005       73.72753       25.95417
H         80.55073       72.86405       27.97450
H         81.41605       71.40888       25.61851
H         80.08464       73.01198       24.32371
H         81.07151       73.83679       25.60301
H         78.91962       74.59470       25.48721
N         78.47613       70.47384       26.75861
C         77.42725       69.47529       26.60294
C         78.03029       68.12992       26.23447
O         77.58553       67.49505       25.28552
C         76.34833       69.95180       25.62033
H         78.54834       70.92003       27.67977
H         76.93556       69.35577       27.59484
H         75.51822       69.21490       25.57852
H         75.93382       70.92427       25.96168
H         76.75859       70.08054       24.59768
N         79.08903       67.65452       26.94568
C         79.74985       66.38596       26.68835
C         79.81258       65.60231       27.97935
O         80.37392       66.10230       28.94684
C         81.15577       66.64293       26.14823
H         79.47552       68.24140       27.69929
H         79.20560       65.80324       25.91251
H         81.09146       67.20974       25.19479
H         81.75160       67.23738       26.86762
H         81.67358       65.67966       25.95281
N         79.23094       64.37458       28.07788
C         79.18337       63.58999       29.30666
C         78.42940       64.36841       30.37258
O         78.95742       64.60616       31.45054
C         80.59684       63.15821       29.77456
C         81.34217       62.34692       28.70625
C         82.68839       61.90859       29.20921
O         82.98184       60.59711       29.29611
O         83.52531       62.73651       29.53362
H         78.76049       63.98109       27.24791
H         78.60378       62.66190       29.10363
H         80.48931       62.52852       30.68611
H         81.20526       64.04694       30.04576
H         81.48800       62.96149       27.79204
H         80.74138       61.45056       28.43977
N         77.17100       64.81823       30.10572
C         76.38336       65.59734       31.03924
H         75.43106       65.06748       31.24787
H         76.91019       65.76808       32.00137
H         76.15430       66.58537       30.58703
H         76.75085       64.61476       29.18638
Ca        86.00277       69.28376       27.66506
O         87.33762       67.44021       25.79839
H         87.38100       66.81467       26.56478
H         86.37470       67.48509       25.57132
O         88.62097       68.38558       29.36252
H         89.02883       67.50003       29.19225
H         89.23021       68.81838       30.01199
O         83.60147       67.70492       28.54729
H         83.66915       68.67936       28.70085
H         82.96400       67.39189       29.23594
O         85.55405       69.04991       31.53327
H         86.21679       69.25468       32.23982
H         85.32116       68.09964       31.68390
O         86.09998       66.37352       29.40754
H         86.96340       65.97052       29.14050
H         85.41706       65.76748       29.02474

Ca 1.0



