%chk=apoCaM-CA-Ng.loop4.water3.frame458.chk
%nprocshared=20
%mem=10GB
%nosave
#b3lyp/svp scf=(tight,noincore,xqc) Test 
#IOP(5/87=12) Density=Current Pop=(MK,readradii) iop(6/33=2) iop(6/42=6)

apoCaM-CA-Ng.loop4.water3.frame458 

   -3  1 
C         46.19176       55.11588       94.72420
C         45.98874       54.11169       95.81831
O         45.93802       52.93668       95.51029
H         47.14648       54.89462       94.19910
H         45.35798       55.04379       93.99418
H         46.23610       56.15036       95.12066
N         45.88704       54.49675       97.12315
C         45.74686       53.57727       98.25067
C         46.95761       52.67742       98.38664
O         46.83956       51.47818       98.23001
C         44.34648       52.90536       98.35167
C         43.71398       52.11649       97.21982
O         44.13753       50.89639       96.82235
O         42.65258       52.51956       96.76993
H         45.95394       55.50247       97.34226
H         45.77273       54.18304       99.18517
H         43.64749       53.74858       98.55446
H         44.33127       52.26561       99.26124
N         48.15688       53.24418       98.73167
C         49.45059       52.58627       98.95718
C         49.45298       51.69315      100.20374
O         50.11108       52.06003      101.16770
C         49.99073       51.90414       97.67396
C         51.40682       51.28935       97.86218
C         49.98648       52.89889       96.49589
C         52.51800       52.28379       98.22111
H         48.16286       54.27031       98.84742
H         50.15918       53.41429       99.18544
H         49.30694       51.07382       97.41066
H         51.70427       50.78916       96.91624
H         51.36851       50.51031       98.65247
H         50.38500       52.42043       95.58193
H         48.95501       53.24141       96.27160
H         50.60228       53.79445       96.71944
H         52.64004       53.05303       97.43201
H         52.32015       52.77820       99.19319
H         53.48066       51.73764       98.30996
N         48.74364       50.53102      100.28116
C         48.61928       49.75250      101.50845
C         49.85098       48.88533      101.79688
O         50.41069       49.09024      102.86479
C         47.28330       48.98143      101.53753
C         46.07275       49.88623      101.54021
O         46.19585       51.22876      101.50298
O         44.95764       49.39290      101.58482
H         48.20022       50.21751       99.47387
H         48.51909       50.45918      102.36571
H         47.24368       48.37081      102.46668
H         47.19449       48.32928      100.65831
N         50.39765       47.93368      100.97138
C         49.98160       47.58373       99.62320
C         48.80030       46.62503       99.56477
O         48.29751       46.24436      100.61220
H         51.26790       47.48475      101.29730
H         50.82279       47.04761       99.13371
H         49.82979       48.51826       99.06206
N         48.29627       46.14168       98.38271
C         48.86862       46.40262       97.05896
C         48.94745       47.88616       96.75618
O         48.16736       48.64092       97.31849
C         48.10608       45.63513       95.94869
C         46.66752       46.05474       95.80261
O         46.38496       47.19240       95.46259
O         45.68259       45.16061       96.00912
H         47.48464       45.50625       98.44013
H         49.90437       46.00327       97.09525
H         48.14438       44.55077       96.18871
H         48.59897       45.77343       94.96497
N         49.93858       48.42186       95.98885
C         50.89906       47.68039       95.19537
C         52.27041       47.72271       95.79746
O         52.44208       48.19489       96.91346
H         50.03234       49.44336       95.96099
H         50.91317       48.11935       94.17637
H         50.63690       46.61417       95.08320
N         53.30662       47.19803       95.09214
C         54.65724       47.07415       95.61601
C         55.62625       48.04668       94.95230
O         56.74987       48.13481       95.42495
C         55.08023       45.58254       95.63120
C         54.96110       44.81338       94.30204
C         55.94129       45.26528       93.26425
N         57.26693       45.10263       93.46618
O         55.53879       45.74623       92.21720
H         53.11606       46.86986       94.13286
H         54.67265       47.39470       96.68107
H         54.38698       45.07108       96.33650
H         56.10312       45.48027       96.05316
H         53.92418       44.87716       93.91169
H         55.15151       43.73484       94.48985
H         57.62040       44.67525       94.33388
H         57.94045       45.37542       92.74210
N         55.23107       48.89555       93.95169
C         56.01604       50.06527       93.54555
C         56.48743       50.02317       92.10279
O         57.15909       50.96826       91.70163
C         55.19799       51.36689       93.81210
C         54.85832       51.51134       95.30333
C         53.90630       51.45787       92.97324
H         54.30297       48.78094       93.53017
H         56.94531       50.13337       94.15296
H         55.83523       52.23655       93.53658
H         54.20272       50.68294       95.64679
H         55.78935       51.50740       95.90905
H         54.33301       52.47300       95.48420
H         53.40805       52.43367       93.15328
H         54.13453       51.38909       91.88887
H         53.18217       50.66045       93.23785
N         56.21938       48.98360       91.26662
C         56.69797       48.93365       89.89149
C         55.56086       48.80304       88.89068
O         55.86578       48.71111       87.71207
C         57.67538       47.74896       89.72696
C         58.89246       47.87506       90.61272
N         59.73854       48.92461       90.49533
O         59.12923       47.00773       91.43637
H         55.68073       48.17836       91.61638
H         57.24481       49.86250       89.61846
H         58.03502       47.69879       88.67581
H         57.14076       46.79873       89.95181
H         59.57418       49.66528       89.79987
H         60.56901       48.99219       91.10286
N         54.23685       48.79452       89.25563
C         53.18361       48.55092       88.27235
C         51.77061       48.79764       88.79984
O         51.42840       48.38818       89.89633
C         53.31043       47.12520       87.65526
C         53.51691       45.98675       88.64396
C         54.73004       45.27204       88.61557
C         52.53408       45.60143       89.57358
C         54.96044       44.21623       89.49906
C         52.77072       44.55104       90.46712
C         53.98158       43.85429       90.43269
O         54.19309       42.84210       91.29838
H         53.96959       48.94368       90.23668
H         53.31516       49.26759       87.43177
H         54.18651       47.14332       86.97609
H         52.44705       46.91113       86.99589
H         55.50706       45.53056       87.90555
H         51.57793       46.09196       89.61592
H         55.90106       43.68124       89.45784
H         52.00809       44.27385       91.18401
H         55.01908       42.33751       91.30690
N         50.86420       49.38665       87.95818
C         49.41341       49.45948       88.14370
C         48.91440       50.35687       89.25946
O         47.70640       50.55253       89.30092
C         48.79704       48.05195       88.26454
C         49.09450       47.19303       87.02800
C         48.53513       45.81250       87.19366
O         47.69721       45.38989       86.41394
O         48.97015       45.02599       88.19708
H         51.20287       49.71364       87.04013
H         49.00193       49.92010       87.21470
H         47.69094       48.13771       88.35874
H         49.17910       47.55613       89.18078
H         50.18612       47.10197       86.87307
H         48.65423       47.68056       86.12989
N         49.73064       50.99759       90.14461
C         49.20760       52.02125       91.04494
C         49.36048       53.39096       90.41210
O         48.75401       54.33113       90.90761
C         49.92260       51.99075       92.40372
C         49.78559       50.67233       93.17429
C         48.38603       50.44393       93.67296
O         47.46889       50.22226       92.89983
O         48.14302       50.51529       94.99302
H         50.75118       50.88341       90.07718
H         48.11507       51.87817       91.19354
H         49.54638       52.81666       93.05100
H         51.00395       52.17385       92.22162
H         50.45531       50.75263       94.05390
H         50.13616       49.80830       92.57208
N         50.14909       53.58952       89.31633
C         50.26932       54.87756       88.67859
H         51.00412       54.81351       87.84791
H         49.28503       55.17818       88.26253
H         50.61998       55.63426       89.41068
H         50.70085       52.81880       88.91527
Ca        46.08932       50.32947       95.86252
O         44.14187       50.05522       93.36916
H         44.84406       49.35632       93.40349
H         44.13264       50.35062       92.42509
O         43.38580       48.07979       95.94129
H         43.22874       47.35729       95.28474
H         42.57220       48.64351       95.89313
O         45.22832       48.10456       98.30016
H         45.41615       48.90705       98.84993
H         45.78882       47.39368       98.69767

Ca 1.0



