%chk=apoCaM-CA-Ng.loop2.water3.frame288.chk
%nprocshared=20
%mem=10GB
%nosave
#b3lyp/svp scf=(tight,noincore,xqc) Test 
#IOP(5/87=12) Density=Current Pop=(MK,readradii) iop(6/33=2) iop(6/42=6)

apoCaM-CA-Ng.loop2.water3.frame288 

   -2  1 
C         47.84082       65.02508       45.66585
C         48.53294       65.92094       46.64870
O         48.75999       65.50475       47.77424
H         46.88787       65.49986       45.34784
H         48.48548       64.86397       44.77816
H         47.60466       64.04207       46.12772
N         48.91235       67.17631       46.28119
C         49.49600       68.13354       47.21767
C         48.43699       68.57599       48.21643
O         47.40556       69.08056       47.79127
C         50.11784       69.34913       46.48495
C         49.14815       70.23364       45.74116
O         49.02626       71.52882       46.08961
O         48.49304       69.80181       44.80689
H         48.77555       67.44562       45.29686
H         50.34654       67.64196       47.74094
H         50.88699       68.98248       45.77076
H         50.63856       69.97195       47.24529
N         48.60798       68.40958       49.56149
C         47.56750       68.78607       50.51949
C         46.32134       67.91614       50.38494
O         45.30577       68.25230       50.97765
C         48.08911       68.68290       51.95669
H         49.49860       68.01967       49.90658
H         47.29578       69.84835       50.32713
H         47.30947       69.01067       52.67790
H         48.37382       67.63398       52.19039
H         48.97878       69.33449       52.08646
N         46.34384       66.75858       49.66036
C         45.22255       65.85159       49.47804
C         44.74944       65.34154       50.82696
O         43.57891       65.47903       51.15594
C         44.13123       66.53465       48.62363
C         43.02278       65.59461       48.24685
O         41.87192       65.84117       48.56998
O         43.28821       64.48969       47.52603
H         47.22217       66.46408       49.23179
H         45.59231       64.97321       48.90063
H         44.59280       66.89896       47.67974
H         43.71469       67.41224       49.16239
N         45.64540       64.76672       51.68124
C         45.28611       64.30372       53.00938
C         45.68250       62.86679       53.21277
O         46.42353       62.59014       54.14631
H         46.63469       64.69414       51.39630
H         44.19539       64.39677       53.19411
H         45.80936       64.93627       53.75949
N         45.20982       61.88583       52.39204
C         45.50856       60.47094       52.61611
C         46.99639       60.18120       52.52945
O         47.76057       61.03654       52.10164
C         44.78754       59.58338       51.57733
C         43.29198       59.75661       51.60853
N         42.62940       60.19977       50.51522
O         42.67203       59.48660       52.62596
H         44.59170       62.15800       51.61190
H         45.15605       60.20821       53.63853
H         45.00934       58.51107       51.76630
H         45.17743       59.83539       50.56605
H         43.13819       60.43224       49.65132
H         41.60559       60.31216       50.53104
N         47.46947       58.96307       52.92025
C         48.86302       58.57131       52.79028
C         48.98791       57.32570       51.95007
O         47.98172       56.71863       51.60502
H         46.81042       58.27650       53.31967
H         49.29711       58.37282       53.79356
H         49.45802       59.37695       52.31104
N         50.22048       56.89295       51.56255
C         50.41569       55.68259       50.76514
C         49.62646       55.70654       49.46023
O         49.34973       54.63886       48.93203
C         51.91660       55.39897       50.48723
C         52.59927       56.48786       49.63385
O         52.61367       55.19313       51.69282
H         51.03586       57.44898       51.85803
H         50.01266       54.83762       51.36785
H         51.98687       54.45098       49.91057
H         52.80928       56.07575       52.10165
H         53.65933       56.21322       49.45195
H         52.09861       56.58785       48.65071
H         52.57680       57.47620       50.13823
N         49.24381       56.88021       48.87969
C         48.41772       56.95698       47.67720
C         47.17142       57.78807       47.93960
O         47.02657       58.37110       49.00541
C         49.23795       57.49158       46.45894
C         50.04014       58.77479       46.80662
C         50.14598       56.36889       45.92630
C         50.75977       59.40018       45.61017
H         49.54650       57.76713       49.30844
H         48.02756       55.94993       47.40962
H         48.53280       57.72625       45.63244
H         50.80764       58.54704       47.57739
H         49.34452       59.53760       47.21708
H         49.52770       55.48443       45.65813
H         50.66577       56.67498       44.99707
H         50.89449       56.06064       46.68216
H         51.52020       58.71344       45.18643
H         50.02922       59.67796       44.82239
H         51.29346       60.31592       45.94204
N         46.20089       57.83905       46.98456
C         44.94823       58.57047       47.11029
C         43.76468       57.59162       47.01426
O         42.64210       58.02013       46.79011
C         44.94898       59.64014       45.99348
C         43.87624       60.69011       46.11438
O         42.98486       60.67198       47.12208
O         43.82791       61.59102       45.29235
H         46.34750       57.31801       46.10574
H         44.89275       59.10537       48.08362
H         44.88642       59.14274       45.00053
H         45.91466       60.19049       46.04454
N         43.94330       56.25163       47.22810
C         42.88431       55.25062       47.10515
C         42.51171       55.08565       45.64335
O         43.42471       54.93275       44.84373
C         43.37339       53.90464       47.69775
C         42.32686       52.81463       47.61237
C         41.56357       52.46966       48.74114
C         42.09988       52.13469       46.40093
C         40.58096       51.47796       48.65231
C         41.12401       51.13849       46.31954
C         40.36129       50.81355       47.44283
H         44.87563       55.91544       47.50980
H         42.01395       55.55997       47.72194
H         43.60673       54.10378       48.76742
H         44.31388       53.54905       47.22238
H         41.71502       52.97941       49.68423
H         42.68065       52.36994       45.51873
H         39.98708       51.22611       49.52112
H         40.95719       50.62152       45.38326
H         39.60097       50.04634       47.37573
N         41.21412       55.03601       45.19819
C         40.86910       54.82046       43.79938
C         41.30160       55.95826       42.89322
O         41.27457       55.79671       41.68144
C         39.33633       54.73816       43.80898
C         39.05889       54.18306       45.19049
C         40.03749       54.98946       46.04045
H         41.33214       53.85419       43.49586
H         38.90824       55.76839       43.80747
H         38.89709       54.17445       42.95837
H         38.00048       54.24685       45.52068
H         39.37454       53.11559       45.19786
H         39.66916       56.02789       46.19444
H         40.18315       54.47149       47.00934
N         41.60814       57.17776       43.42096
C         41.90392       58.35268       42.61354
C         43.34187       58.35346       42.10826
O         43.68742       59.26222       41.36568
C         41.66361       59.62597       43.45274
C         40.21153       59.74429       43.95164
C         40.03935       60.95954       44.81469
O         39.65349       60.82432       46.09851
O         40.24125       62.07352       44.35864
H         41.53344       57.30346       44.43930
H         41.20389       58.38638       41.74874
H         41.90486       60.52667       42.84643
H         42.34071       59.59245       44.32649
H         39.93301       58.85470       44.55476
H         39.51762       59.80650       43.08671
N         44.24486       57.40081       42.48580
C         45.63200       57.40008       42.06729
H         46.28253       57.46184       42.96584
H         45.85394       56.45543       41.52894
H         45.87730       58.25320       41.40121
H         43.96344       56.64272       43.11773
Ca        41.57033       63.17271       46.89709
O         39.41901       65.22980       46.10651
H         38.76367       64.50663       45.93891
H         39.75763       65.47068       45.20783
O         42.42695       64.73216       44.31461
H         42.96033       63.98784       43.93820
H         43.08982       65.30416       44.77705
O         39.82993       63.08419       49.33990
H         40.06279       63.77943       50.00515
H         40.09283       62.23145       49.76847

Ca 1.0



