%chk=apoCaM-CA-Ng.loop3.water3.frame945.chk
%nprocshared=20
%mem=10GB
%nosave
#b3lyp/svp scf=(tight,noincore,xqc) Test 
#IOP(5/87=12) Density=Current Pop=(MK,readradii) iop(6/33=2) iop(6/42=6)

apoCaM-CA-Ng.loop3.water3.frame945 

   0  1 
C         71.32366      126.36399       57.36299
C         70.54600      127.52876       56.83243
O         69.41731      127.32985       56.41151
H         72.32448      126.67612       57.72667
H         70.76597      125.90991       58.20954
H         71.45046      125.60662       56.56214
N         71.09018      128.77806       56.80998
C         70.36426      129.96253       56.36200
C         70.98578      130.46314       55.05934
O         72.03195      129.95780       54.67380
C         70.42322      130.98919       57.52366
C         69.48336      132.16053       57.50872
O         69.57511      133.05792       58.50618
O         68.60221      132.28177       56.67621
H         72.06394      128.90121       57.12962
H         69.31158      129.69403       56.15746
H         71.46654      131.36276       57.60754
H         70.18344      130.46019       58.47045
N         70.38063      131.42474       54.30502
C         70.93465      131.93963       53.05226
C         71.33047      133.40583       53.16245
O         72.02484      133.88671       52.27756
C         69.94550      131.72382       51.88013
C         68.58030      132.41691       52.09984
C         67.64504      132.36534       50.88234
C         67.25872      130.94074       50.46000
N         66.29201      130.97104       49.36250
H         69.48470      131.79919       54.62374
H         71.87391      131.39644       52.81105
H         69.78489      130.63295       51.74906
H         70.41090      132.11983       50.95111
H         68.75001      133.49072       52.32649
H         68.05301      131.95763       52.96223
H         68.12108      132.89122       50.02682
H         66.71689      132.91586       51.15282
H         66.80821      130.40542       51.32253
H         68.16310      130.38622       50.12967
H         66.06493      129.99107       49.07764
H         65.41190      131.44345       49.67373
H         66.69271      131.47951       48.54099
N         70.90619      134.18442       54.19561
C         71.26753      135.58100       54.37212
C         71.84182      135.80000       55.76625
O         72.94725      136.31694       55.85476
C         70.08347      136.50815       53.99936
C         68.70554      136.06163       54.41970
O         67.86188      135.84067       53.56603
O         68.37021      135.92499       55.70830
H         70.25568      133.79207       54.88532
H         72.07324      135.88253       53.66330
H         70.05610      136.54633       52.88665
H         70.29160      137.54202       54.35057
N         71.18027      135.41104       56.89485
C         71.70259      135.61446       58.24149
C         70.77986      136.45178       59.10958
O         71.14217      136.70993       60.24815
H         70.28055      134.92466       56.80513
H         72.69109      136.11911       58.21552
H         71.84596      134.62350       58.72424
N         69.56867      136.89092       58.65812
C         68.62645      137.69203       59.43012
C         67.39840      136.76667       59.71305
O         67.93742      135.59612       60.22635
C         68.33818      138.94160       58.55919
C         67.71275      140.15653       59.19267
N         67.42488      141.22307       58.41037
O         67.50696      140.21769       60.39410
H         69.26253      136.63450       57.71926
H         69.09369      137.99093       60.39417
H         67.73530      138.61836       57.68222
H         69.31386      139.31500       58.17285
H         67.61571      141.19563       57.39683
H         67.01362      142.07746       58.81256
N         66.43129      137.27085       60.69682
C         65.07190      136.69300       60.58670
C         64.94439      135.19080       60.82009
O         65.50973      134.68747       61.78026
H         66.29267      138.28763       60.55499
H         64.59595      136.98916       59.62669
H         64.47343      137.16372       61.39730
N         64.10560      134.43779       60.03379
C         63.80605      133.01811       60.27258
C         64.88963      132.11900       59.63382
O         66.09509      132.33286       60.27000
C         62.41981      132.62793       59.70025
C         61.25863      133.41598       60.26098
C         60.36340      134.05789       59.38801
C         61.02571      133.48113       61.64685
C         59.25357      134.74370       59.88938
C         59.92176      134.17951       62.14644
C         59.02899      134.80665       61.27156
O         57.95768      135.45766       61.76808
H         63.56492      134.92980       59.30656
H         63.76783      132.82451       61.36656
H         62.22096      131.56424       59.95203
H         62.43711      132.70759       58.59325
H         60.51021      134.01070       58.31610
H         61.69124      132.99047       62.34448
H         58.56516      135.21863       59.20172
H         59.75401      134.22373       63.21535
H         57.30638      135.88786       61.19563
N         64.56053      130.68215       59.66879
C         65.50107      129.78448       58.94674
C         65.54638      130.13951       57.46105
O         65.77766      131.29193       57.12470
C         66.93859      129.69450       59.57242
C         67.81864      128.61944       58.87890
C         66.90607      129.43476       61.09311
C         67.33944      127.16803       59.01946
H         64.41091      130.36314       60.65303
H         65.06926      128.76762       59.04074
H         67.47024      130.65415       59.40746
H         68.84356      128.67105       59.30644
H         67.89469      128.86282       57.80219
H         66.41856      130.26460       61.64048
H         66.35557      128.50203       61.33145
H         67.94049      129.35897       61.49098
H         67.30127      126.85773       60.08255
H         66.34639      127.01391       58.55741
H         68.05383      126.49402       58.50430
N         65.37324      129.17269       56.51411
C         65.33516      129.44494       55.07737
C         64.11454      128.82648       54.39750
O         63.94853      129.05029       53.20499
C         66.61250      128.90761       54.41142
O         66.69949      127.51121       54.51701
H         65.31126      128.19609       56.83108
H         65.30596      130.54244       54.89958
H         67.51114      129.39146       54.84695
H         66.61745      129.17290       53.33434
H         67.03520      127.31170       55.42804
N         63.25420      127.99103       55.05401
C         62.16549      127.29100       54.37952
C         61.06654      128.25473       53.94906
O         61.03535      129.36364       54.46499
C         61.57971      126.24428       55.34256
H         63.40651      127.77892       56.04786
H         62.60075      126.75858       53.51155
H         61.17010      126.74231       56.24781
H         60.77238      125.64802       54.88820
H         62.37832      125.53937       55.65835
N         60.07904      127.92377       53.06171
C         60.05464      126.72546       52.22323
C         58.65771      126.51253       51.64662
O         58.13747      127.44051       51.04167
C         61.03826      126.88855       51.05443
H         59.33278      128.62301       52.91831
H         60.36072      125.84195       52.79922
H         62.07740      127.03811       51.40301
H         61.02076      125.97780       50.41723
H         60.76142      127.76506       50.43002
N         57.97547      125.32932       51.72818
C         58.49815      124.09820       52.31968
C         58.55615      124.14408       53.84121
O         59.09810      123.20941       54.41654
C         57.63306      122.88205       51.90036
C         57.60258      122.63839       50.37965
C         58.96458      122.30940       49.83571
O         59.62932      121.22840       50.28731
O         59.47125      123.01454       48.97788
H         57.05414      125.29399       51.26471
H         59.52436      123.92759       51.92696
H         56.59186      123.03923       52.25921
H         58.02066      121.95801       52.38442
H         57.18820      123.52488       49.85479
H         56.92959      121.78041       50.16830
N         58.00691      125.16250       54.56530
C         58.03123      125.20586       56.01509
H         58.53747      126.13497       56.34824
H         56.99011      125.20393       56.40019
H         58.56589      124.33999       56.46054
H         57.52788      125.93826       54.08793
Ca        67.03445      133.93856       59.06232
O         65.89543      133.42632       54.38891
H         66.23783      133.80884       53.54363
H         64.93875      133.25205       54.20448
O         65.56295      136.61342       56.43821
H         64.80733      137.06001       56.89578
H         65.93051      137.30570       55.83294
O         64.02716      133.81383       56.74173
H         63.56356      133.00231       56.41410
H         63.30649      134.48352       56.85145

Ca 1.0



