%chk=apoCaM-CA-Ng.loop4.water5.frame726.chk
%nprocshared=20
%mem=10GB
%nosave
#b3lyp/svp scf=(tight,noincore,xqc) Test 
#IOP(5/87=12) Density=Current Pop=(MK,readradii) iop(6/33=2) iop(6/42=6)

apoCaM-CA-Ng.loop4.water5.frame726 

   -3  1 
C         90.70445       82.43658       77.42006
C         91.39518       81.71738       76.29715
O         91.35603       80.49854       76.26625
H         89.62116       82.19680       77.40913
H         91.14158       82.11790       78.38974
H         90.82222       83.53771       77.33055
N         92.05612       82.42169       75.33638
C         92.79188       81.84595       74.21230
C         91.87734       81.03513       73.30721
O         92.23829       79.92693       72.92608
C         93.97671       80.97858       74.69832
C         94.75840       81.62132       75.80244
O         95.36949       82.65964       75.61438
O         94.73817       81.05115       77.02469
H         92.05452       83.45125       75.40182
H         93.19569       82.69882       73.62360
H         94.64262       80.70318       73.85213
H         93.55624       80.04189       75.09610
N         90.64204       81.49640       72.96048
C         89.74642       80.67685       72.14737
C         90.20311       80.70965       70.68542
O         90.98521       81.58789       70.34711
C         88.24854       81.09438       72.31198
C         87.94935       82.49132       71.71119
C         87.82927       80.98567       73.79278
C         86.45993       82.84266       71.71938
H         90.32038       82.39425       73.34913
H         89.82799       79.64006       72.54365
H         87.62689       80.36793       71.75562
H         88.26581       82.49643       70.64635
H         88.51358       83.28346       72.24508
H         88.37065       81.72051       74.42397
H         86.74106       81.15306       73.91701
H         88.04278       79.96501       74.17645
H         85.87824       82.06620       71.17696
H         86.07134       82.93971       72.75269
H         86.30864       83.81669       71.20897
N         89.77898       79.82876       69.73209
C         88.94544       78.65980       69.97987
C         89.65600       77.35704       69.64696
O         89.15708       76.33636       70.08612
C         87.61579       78.77574       69.20626
C         87.80057       78.91687       67.71728
O         88.34612       78.03785       67.06973
O         87.35152       80.01997       67.08917
H         90.10071       79.99287       68.76566
H         88.70108       78.57845       71.05294
H         87.06874       79.66888       69.57546
H         86.98627       77.88456       69.40906
N         90.80457       77.30378       68.90455
C         91.49898       76.08377       68.50953
C         90.71761       75.25540       67.50570
O         91.09525       75.23421       66.34237
H         91.23700       78.17761       68.57890
H         91.79419       75.47808       69.39205
H         92.43963       76.39662       68.00153
N         89.64859       74.50652       67.89152
C         88.86143       73.67102       66.99742
C         87.40620       74.12344       66.91602
O         86.66330       73.50217       66.16967
C         89.01674       72.18867       67.42692
C         88.81322       71.92134       68.90025
O         87.73801       72.11391       69.43561
O         89.83821       71.45625       69.64011
H         89.39242       74.47653       68.88198
H         89.23721       73.74185       65.95317
H         90.06188       71.89196       67.19537
H         88.34416       71.53856       66.82687
N         86.92236       75.20813       67.59820
C         85.54134       75.66513       67.48317
C         84.52578       74.69539       68.05749
O         83.33985       74.96977       67.94737
H         87.54837       75.76239       68.19348
H         85.31502       75.85373       66.41139
H         85.42114       76.62602       68.02855
N         84.91306       73.55337       68.69861
C         84.02762       72.53788       69.25411
C         83.25866       73.02376       70.47678
O         82.49902       72.23913       71.02710
C         83.11912       71.92970       68.15778
C         83.95864       71.44555       66.95665
C         83.16462       70.76548       65.87246
N         83.79685       70.34482       64.75171
O         81.96050       70.59204       65.99041
H         85.90829       73.36153       68.79682
H         84.66791       71.70552       69.62611
H         82.37157       72.67141       67.80579
H         82.56949       71.06643       68.59303
H         84.73985       70.73805       67.30982
H         84.45406       72.32125       66.49275
H         84.81108       70.49183       64.63520
H         83.27505       69.87800       63.99564
N         83.43751       74.27831       70.99063
C         82.75790       74.77790       72.18066
C         83.75073       75.18406       73.27257
O         83.29723       75.63030       74.31784
C         81.83189       75.97135       71.79758
C         82.60040       77.18268       71.23724
C         80.76069       75.52709       70.79030
H         84.08924       74.92583       70.53399
H         82.11080       73.98711       72.61987
H         81.30282       76.30606       72.71742
H         83.12422       76.93779       70.29009
H         81.89679       78.01634       71.02948
H         83.34113       77.54688       71.97561
H         81.22268       75.19611       69.83580
H         80.16567       74.68779       71.20837
H         80.06807       76.36719       70.57052
N         85.10573       75.08162       73.10772
C         86.07938       75.55357       74.09001
C         86.96906       74.41274       74.56448
O         86.78128       73.28051       74.13850
C         86.91745       76.67971       73.44222
C         86.04771       77.82318       72.98303
N         85.31532       78.54041       73.86654
O         86.00461       78.10614       71.79694
H         85.49170       74.69142       72.23628
H         85.57475       75.96557       74.99024
H         87.47258       76.26239       72.57228
H         87.65948       77.09136       74.15572
H         85.33989       78.32561       74.87334
H         84.72294       79.31886       73.54118
N         87.97848       74.65560       75.45081
C         88.88114       73.62409       75.96218
C         89.09328       73.80618       77.46258
O         88.53366       74.74465       78.01659
C         90.20865       73.62464       75.16109
C         91.18402       74.73800       75.48733
C         90.87061       76.09676       75.30326
C         92.45596       74.39814       75.98467
C         91.79333       77.08740       75.65128
C         93.38058       75.38743       76.31068
C         93.04966       76.73224       76.16158
O         93.94217       77.66499       76.54381
H         88.11856       75.62448       75.76682
H         88.42420       72.62513       75.78848
H         89.97902       73.62936       74.07345
H         90.70873       72.65395       75.37024
H         89.92123       76.40539       74.90019
H         92.73778       73.36300       76.12736
H         91.52631       78.12548       75.52365
H         94.35054       75.10982       76.70287
H         93.70580       78.59534       76.62039
N         89.89899       72.97167       78.18953
C         90.15502       73.19214       79.61216
C         91.65136       73.41757       79.83485
O         92.39040       72.44282       79.83187
C         89.61072       72.01703       80.44837
C         89.67115       72.30900       81.95696
C         89.12441       71.16094       82.75390
O         89.66457       70.06723       82.70765
O         88.04205       71.33650       83.53611
H         90.35866       72.17583       77.72134
H         89.59016       74.07628       79.95140
H         90.17397       71.08890       80.20568
H         88.54448       71.85393       80.17534
H         89.06528       73.21715       82.17127
H         90.71693       72.49965       82.27839
N         92.21263       74.66156       79.95338
C         91.46030       75.90228       79.79306
C         90.54855       76.19091       80.96836
O         90.63447       75.51632       81.98555
C         92.39173       77.10317       79.52314
C         93.24966       77.57145       80.70539
C         94.08251       78.75248       80.28767
O         95.42607       78.68532       80.33431
O         93.54387       79.77689       79.89735
H         93.24050       74.71236       80.03425
H         90.85322       75.78684       78.86894
H         91.76869       77.95806       79.18025
H         93.07354       76.82282       78.70611
H         93.91430       76.74956       81.04492
H         92.60186       77.88104       81.55230
N         89.63988       77.20104       80.87954
C         88.74228       77.56821       81.95348
H         87.69362       77.43312       81.61659
H         88.90285       76.95855       82.86705
H         88.90430       78.63548       82.21155
H         89.56899       77.73625       80.00112
Ca        95.61133       81.98113       78.88186
O         97.42972       81.07923       81.13106
H         97.24625       80.45483       81.87694
H         98.29569       81.49928       81.36292
O         96.12658       84.02990       81.00539
H         95.75974       84.91583       81.25089
H         97.00660       83.98800       81.45646
O         93.82840       82.07742       81.88562
H         93.78000       82.92350       82.39750
H         93.02432       81.57161       82.16509
O         95.90922       84.90889       78.11010
H         95.31396       84.44705       77.46862
H         96.74091       85.07827       77.60081
O         98.35147       81.93164       77.75291
H         98.80793       81.43331       78.47651
H         97.77009       81.25813       77.31787

Ca 1.0



