%chk=apoCaM-CA-Ng.loop3.water4.frame159.chk
%nprocshared=20
%mem=10GB
%nosave
#b3lyp/svp scf=(tight,noincore,xqc) Test 
#IOP(5/87=12) Density=Current Pop=(MK,readradii) iop(6/33=2) iop(6/42=6)

apoCaM-CA-Ng.loop3.water4.frame159 

   0  1 
C         46.82426       52.67400       57.12434
C         45.69619       51.70866       57.34299
O         44.55921       52.05541       57.06407
H         47.80068       52.22638       57.40850
H         46.86831       52.95480       56.05125
H         46.66227       53.58511       57.73641
N         45.94212       50.47001       57.85306
C         44.92877       49.44800       58.07912
C         43.86333       49.93961       59.05213
O         42.67981       49.83166       58.75923
C         44.36377       48.95600       56.72133
C         43.47130       47.75362       56.86230
O         42.31304       47.79860       56.47899
O         43.95406       46.61214       57.38916
H         46.91253       50.22488       58.10320
H         45.44229       48.58512       58.55943
H         45.21064       48.66379       56.06377
H         43.80984       49.77763       56.21728
N         44.22689       50.51493       60.23810
C         43.25918       50.96707       61.23124
C         43.23447       52.48853       61.24300
O         43.39431       53.10580       62.28874
C         43.61226       50.41883       62.63829
C         43.65188       48.89250       62.83625
C         44.75402       48.17761       62.03936
C         44.92389       46.72692       62.50423
N         45.94374       46.04188       61.71019
H         45.22874       50.66556       60.43201
H         42.23353       50.63424       60.95867
H         42.85302       50.81063       63.35147
H         44.60250       50.82694       62.94112
H         42.66164       48.44055       62.61315
H         43.86563       48.73947       63.91754
H         45.72291       48.70465       62.18393
H         44.49513       48.16957       60.96445
H         43.95825       46.18374       62.40902
H         45.22872       46.72135       63.57511
H         45.64456       45.99542       60.70888
H         46.85840       46.54465       61.78116
H         46.06349       45.06887       62.07325
N         43.05272       53.16615       60.07838
C         43.01815       54.61876       60.00864
C         41.73646       55.13961       60.64936
O         40.67310       54.59077       60.39628
C         43.18350       55.07494       58.54510
C         43.29601       56.56799       58.45304
O         44.42911       57.16063       58.04958
O         42.35103       57.27004       58.75208
H         42.97051       52.62741       59.20289
H         43.90994       55.02903       60.53612
H         42.34925       54.71345       57.90793
H         44.13099       54.63895       58.15784
N         41.77285       56.22899       61.46801
C         40.61516       56.79277       62.14857
C         39.47816       57.14768       61.21337
O         38.37070       56.68027       61.43697
H         42.67784       56.69786       61.61834
H         40.93568       57.71637       62.67920
H         40.25098       56.07247       62.91215
N         39.68062       57.95739       60.13781
C         38.62246       58.34819       59.20714
C         38.70842       57.60514       57.87246
O         37.95539       57.93421       56.96597
C         38.56016       59.88715       59.08247
C         39.74312       60.54442       58.41384
N         39.55744       61.33032       57.33082
O         40.86752       60.41342       58.87258
H         40.63377       58.29263       59.96721
H         37.63167       58.05856       59.61990
H         38.46044       60.31536       60.10300
H         37.63684       60.15434       58.52370
H         38.62026       61.48467       56.93225
H         40.35657       61.81298       56.90860
N         39.49644       56.49864       57.73030
C         39.48054       55.63125       56.56356
C         40.07253       56.28169       55.34546
O         39.40035       56.37158       54.32881
H         40.07182       56.18468       58.51950
H         38.44103       55.28669       56.36858
H         40.09490       54.72990       56.77850
N         41.35520       56.73276       55.37857
C         42.03842       57.31836       54.23419
C         42.31463       58.78329       54.48386
O         42.07446       59.27331       55.57872
C         43.36010       56.55416       53.98608
C         43.11961       55.11644       53.59502
C         42.46151       54.82399       52.38954
C         43.55839       54.05814       54.41086
C         42.23977       53.49953       52.00607
C         43.33189       52.73133       54.02435
C         42.67104       52.44896       52.82054
O         42.44700       51.17608       52.43595
H         41.87584       56.65924       56.26039
H         41.39429       57.27543       53.33058
H         43.97584       56.60746       54.91295
H         43.94782       57.03129       53.17301
H         42.12577       55.62369       51.74201
H         44.07200       54.25665       55.34375
H         41.73320       53.29101       51.07256
H         43.66932       51.92056       54.65524
H         42.72644       50.41907       52.97036
N         42.80485       59.55606       53.47062
C         43.08626       60.97663       53.63723
C         41.79772       61.69798       53.98900
O         41.73087       62.24709       55.07303
C         43.78753       61.59238       52.38746
C         45.06794       60.81791       51.95711
C         44.13870       63.07202       52.63925
C         46.13937       60.68671       53.04229
H         42.97104       59.10836       52.55978
H         43.79211       61.08309       54.48899
H         43.08664       61.55323       51.52479
H         45.51548       61.32596       51.07602
H         44.80432       59.79384       51.62489
H         43.23482       63.66575       52.85375
H         44.81822       63.18617       53.50842
H         44.61985       63.51242       51.74089
H         45.74268       60.11529       53.90012
H         47.00826       60.12645       52.63932
H         46.49719       61.67613       53.38961
N         40.71629       61.70354       53.15842
C         39.42318       62.25254       53.57177
C         39.46024       63.73123       53.94213
O         38.57401       64.16014       54.66624
C         38.35346       62.01335       52.49509
O         38.70330       62.68786       51.31359
H         40.79525       61.23451       52.24241
H         39.11283       61.69294       54.48171
H         37.36199       62.37695       52.84357
H         38.27505       60.91448       52.31811
H         38.44118       62.10466       50.55450
N         40.42128       64.57169       53.45826
C         40.48443       66.01020       53.72184
C         40.78494       66.38062       55.17162
O         40.80046       67.57444       55.44962
C         39.20537       66.70809       53.22877
H         41.11940       64.19054       52.80945
H         41.31988       66.42925       53.11774
H         39.31269       67.81051       53.31881
H         39.03157       66.46818       52.15883
H         38.31335       66.41075       53.81520
N         41.08203       65.46114       56.13814
C         41.37561       65.83412       57.52013
C         42.81492       65.53859       57.88139
O         43.51928       64.90785       57.10470
C         40.43509       65.07888       58.46426
H         41.12917       64.46371       55.89562
H         41.22638       66.92558       57.66635
H         39.37847       65.30847       58.21470
H         40.59382       63.98222       58.36521
H         40.61871       65.36455       59.52134
N         43.33133       66.01450       59.05355
C         44.68350       65.74788       59.54085
C         45.78591       66.25454       58.60828
O         46.94497       65.99259       58.90067
C         44.85360       64.24171       59.84926
C         43.76866       63.73680       60.81643
C         43.96716       62.28995       61.15571
O         45.08096       61.89404       61.80096
O         43.11004       61.46931       60.86965
H         42.72268       66.58620       59.66027
H         44.81782       66.27771       60.51066
H         45.85275       64.07950       60.31194
H         44.81299       63.65231       58.91483
H         42.76848       63.86329       60.34787
H         43.79306       64.32600       61.75811
N         45.52092       66.99831       57.49211
C         46.54345       67.44945       56.56928
H         47.55872       67.10105       56.85150
H         46.31368       67.05812       55.55538
H         46.54519       68.55848       56.53231
H         44.55855       67.27982       57.26656
Ca        44.30449       59.40718       58.15745
O         46.07783       58.98666       56.05666
H         46.03636       58.01013       55.90276
H         46.96728       59.14539       56.45979
O         46.68278       61.14565       58.87050
H         46.10366       60.85361       59.61755
H         47.57544       60.78371       59.09564
O         44.41554       58.64884       61.03142
H         44.91397       57.83544       61.29557
H         44.17194       59.08200       61.88732
O         44.15358       61.98787       57.13678
H         45.09957       62.21080       56.95403
H         43.65205       62.52599       56.48166

Ca 1.0



