%chk=apoCaM-CA-Ng.loop4.water6.frame1040.chk
%nprocshared=20
%mem=10GB
%nosave
#b3lyp/svp scf=(tight,noincore,xqc) Test 
#IOP(5/87=12) Density=Current Pop=(MK,readradii) iop(6/33=2) iop(6/42=6)

apoCaM-CA-Ng.loop4.water6.frame1040 

   -3  1 
C         43.61126       57.13572       59.05645
C         44.22822       56.74478       57.74189
O         43.88140       55.68880       57.23569
H         42.89210       56.35995       59.39680
H         44.39956       57.23967       59.83041
H         43.06145       58.09377       58.94468
N         45.13398       57.52829       57.08595
C         45.59096       58.83666       57.54922
C         45.06079       59.95328       56.65521
O         45.28813       61.11131       56.97740
C         47.13424       58.85239       57.64864
C         47.60218       57.75474       58.56359
O         47.18200       57.69842       59.70860
O         48.42280       56.78390       58.11700
H         45.49925       57.18793       56.18299
H         45.18741       59.05451       58.55872
H         47.47690       59.83046       58.04907
H         47.58217       58.70618       56.64286
N         44.29865       59.68874       55.54962
C         43.64629       60.71757       54.73793
C         44.60440       61.67942       54.03293
O         44.10292       62.60809       53.41318
C         42.68069       60.07737       53.67803
C         43.43625       59.17199       52.66374
C         41.53286       59.31972       54.37609
C         42.57887       58.70193       51.48884
H         44.10843       58.71025       55.31172
H         43.02425       61.33695       55.42213
H         42.21238       60.91287       53.11185
H         43.83200       58.27223       53.17012
H         44.28977       59.73559       52.23062
H         41.90226       58.44250       54.94652
H         41.00245       59.99816       55.07694
H         40.78331       58.96350       53.64183
H         43.20355       58.09097       50.80247
H         41.73606       58.06651       51.82605
H         42.18766       59.57537       50.92666
N         45.96465       61.54743       54.06433
C         46.85634       62.43915       53.31166
C         48.32319       62.25585       53.74261
O         48.59111       61.46083       54.63251
C         46.64320       62.16428       51.79122
C         47.16882       63.24206       50.88678
O         48.05363       62.94747       49.91694
O         46.75526       64.38565       50.99545
H         46.36563       60.78879       54.62288
H         46.57332       63.48826       53.55069
H         45.56165       62.11614       51.55792
H         47.07338       61.17422       51.52567
N         49.33559       62.95690       53.15382
C         50.74093       62.76859       53.49590
C         51.51893       62.09024       52.37888
O         52.71769       61.91127       52.53629
H         49.12566       63.63067       52.40671
H         50.86004       62.13616       54.40071
H         51.18327       63.76236       53.72530
N         50.90698       61.67349       51.23237
C         51.57745       61.01308       50.11645
C         50.86954       59.70279       49.80235
O         49.64575       59.69913       49.79782
C         51.47704       61.90987       48.86858
C         52.15600       63.23408       49.06979
O         53.35118       63.28340       49.31308
O         51.44879       64.37553       48.96793
H         49.90068       61.84054       51.11833
H         52.65490       60.84242       50.32596
H         50.40735       62.08340       48.61653
H         51.95590       61.39792       48.00536
N         51.51427       58.56520       49.41710
C         52.95502       58.41552       49.28182
C         53.24295       57.13065       48.51877
O         52.86000       57.09089       47.35807
H         50.91863       57.76290       49.15592
H         53.41265       58.47362       50.28161
H         53.37533       59.24750       48.67639
N         53.83470       56.01029       49.03712
C         54.32328       55.81380       50.39579
C         53.22227       56.09075       51.38742
O         53.34166       56.98060       52.21919
C         55.64216       56.58216       50.65015
C         56.73807       56.24420       49.61288
C         57.19711       54.79894       49.57517
N         58.08833       54.40744       48.63583
O         56.78024       53.97855       50.37900
H         53.90501       55.19072       48.41290
H         54.56151       54.73948       50.51921
H         56.01631       56.34173       51.66999
H         55.46406       57.67447       50.60503
H         57.62978       56.87239       49.82231
H         56.35925       56.51981       48.60586
H         58.45390       55.07962       47.94583
H         58.40487       53.42717       48.58964
N         52.10000       55.32488       51.34329
C         50.93374       55.56278       52.17753
C         49.69042       55.65301       51.30213
O         49.76941       55.48933       50.09209
C         50.83156       54.49395       53.30448
C         52.04088       54.59551       54.24589
C         50.70423       53.06635       52.76922
H         52.07067       54.53492       50.67937
H         51.02081       56.54815       52.68781
H         49.93141       54.70466       53.92098
H         52.10412       55.61937       54.67374
H         51.93706       53.87704       55.08608
H         52.98793       54.37660       53.70953
H         51.59326       52.77605       52.17066
H         50.60054       52.34901       53.61130
H         49.79734       52.99574       52.14589
N         48.49929       55.95018       51.87483
C         47.24735       56.14354       51.14593
C         46.19738       55.10589       51.53391
O         45.10377       55.14919       50.98617
C         46.78290       57.59748       51.38020
C         46.82052       57.96249       52.84485
N         47.72821       58.85850       53.29689
O         46.08270       57.39750       53.63580
H         48.48431       56.07641       52.89752
H         47.39449       56.01513       50.05137
H         45.77951       57.78736       50.94372
H         47.50191       58.25256       50.84262
H         48.38787       59.32214       52.65402
H         47.79940       59.06184       54.30205
N         46.46531       54.12407       52.44122
C         45.52551       53.05934       52.79109
C         45.96710       52.34144       54.06421
O         47.01194       52.66852       54.60952
C         45.36950       52.04236       51.62767
C         46.66752       51.32620       51.32125
C         46.86707       50.00249       51.75253
C         47.69435       51.97639       50.61743
C         48.08141       49.35372       51.50697
C         48.90034       51.31951       50.35780
C         49.10281       50.00989       50.81277
O         50.27265       49.37673       50.59295
H         47.38295       54.13047       52.90079
H         44.53865       53.51816       53.02365
H         44.97645       52.51678       50.70380
H         44.60236       51.29755       51.92589
H         46.09305       49.47930       52.30015
H         47.56432       52.99054       50.26495
H         48.23078       48.34197       51.86283
H         49.68213       51.83728       49.81611
H         51.00912       49.80348       50.13184
N         45.21090       51.34413       54.60322
C         45.55837       50.68972       55.85565
C         44.38275       50.82933       56.79464
O         43.34132       50.24251       56.52772
C         45.94223       49.22631       55.57826
C         46.46072       48.50525       56.82739
C         46.90354       47.11276       56.47934
O         46.02123       46.22648       55.97920
O         48.06599       46.77837       56.64468
H         44.34914       51.04365       54.12260
H         46.44459       51.18026       56.31147
H         46.76034       49.22938       54.82334
H         45.07490       48.67992       55.14526
H         45.66678       48.45191       57.60178
H         47.32382       49.07263       57.24208
N         44.44952       51.65269       57.88282
C         43.29959       51.86560       58.75695
C         42.13941       52.54098       58.01489
O         41.06413       52.62661       58.59200
C         43.62435       52.70707       60.02410
C         44.74557       52.15550       60.93544
C         46.10793       52.51550       60.41951
O         46.92088       51.65898       60.11082
O         46.39407       53.82190       60.26869
H         45.33149       52.14240       58.06819
H         42.96557       50.86302       59.10615
H         42.69555       52.70937       60.63641
H         43.83881       53.76705       59.75870
H         44.61693       51.06200       61.08334
H         44.66309       52.65072       61.92721
N         42.27639       53.05397       56.75254
C         41.19643       53.68284       56.01848
H         40.24578       53.70311       56.59017
H         41.48044       54.72657       55.76788
H         41.02484       53.12511       55.07338
H         43.18256       53.01945       56.26721
Ca        48.06569       54.80072       59.12416
O         51.28448       52.85466       59.35841
H         51.59029       52.08499       59.90085
H         52.03621       53.03664       58.74042
O         46.45469       54.19787       56.74114
H         46.01800       54.45598       57.58889
H         46.82599       55.03996       56.37753
O         49.21213       52.05993       57.06498
H         48.87342       51.71778       56.20079
H         49.98045       51.47173       57.27342
O         50.83130       55.18409       57.32505
H         51.57874       55.61937       57.80687
H         50.54371       55.85420       56.65547
O         49.22305       53.14738       61.78119
H         48.82300       53.96265       62.17576
H         50.19057       53.22666       61.97549
O         50.47205       56.00241       60.75419
H         49.65734       56.56460       60.77312
H         51.21963       56.65070       60.73025

Ca 1.0



