%chk=apoCaM-CA-Ng.loop3.water4.frame1075.chk
%nprocshared=20
%mem=10GB
%nosave
#b3lyp/svp scf=(tight,noincore,xqc) Test 
#IOP(5/87=12) Density=Current Pop=(MK,readradii) iop(6/33=2) iop(6/42=6)

apoCaM-CA-Ng.loop3.water4.frame1075 

   0  1 
C         31.29097       76.05920        5.63246
C         31.01940       77.52992        5.53248
O         30.80802       78.15838        6.55987
H         32.18983       75.88685        6.25884
H         30.41625       75.55822        6.09879
H         31.45925       75.60867        4.63169
N         30.97820       78.14182        4.31593
C         30.65412       79.55344        4.14244
C         29.29562       79.75287        3.49003
O         28.81277       80.87117        3.55543
C         31.76433       80.28639        3.35739
C         32.14051       79.58913        2.07234
O         31.30273       79.34501        1.22165
O         33.41326       79.19868        1.87201
H         31.14405       77.56898        3.47449
H         30.56237       80.04219        5.13562
H         32.67625       80.34476        3.98849
H         31.43616       81.32726        3.14160
N         28.59805       78.72877        2.91332
C         27.25446       78.84493        2.34412
C         27.26424       79.46534        0.94437
O         26.92900       78.80477       -0.02919
C         26.56982       77.45552        2.38513
C         26.24972       77.06181        3.84195
C         25.64429       75.65817        3.94040
C         25.12417       75.38618        5.36085
N         24.60127       74.02553        5.47766
H         29.01431       77.78805        2.92150
H         26.61879       79.50214        2.97910
H         27.21693       76.69718        1.89089
H         25.60092       77.49517        1.84047
H         25.52059       77.80433        4.23742
H         27.16213       77.09773        4.47736
H         26.42344       74.91316        3.66660
H         24.79164       75.56326        3.23413
H         24.31015       76.11112        5.59047
H         25.93817       75.52989        6.10555
H         24.19458       73.89525        6.43228
H         23.85264       73.86045        4.76617
H         25.37564       73.33564        5.34298
N         27.53535       80.79199        0.81078
C         27.42438       81.58131       -0.40867
C         28.73054       82.32092       -0.70745
O         28.71628       83.27149       -1.47729
C         26.24312       82.56190       -0.20399
C         26.37709       83.42144        1.03059
O         25.47893       83.30454        2.02838
O         27.30193       84.20931        1.14412
H         27.75426       81.32822        1.65130
H         27.17259       80.95616       -1.29334
H         25.31809       81.95259       -0.09804
H         26.11601       83.20997       -1.09641
N         29.90614       81.90688       -0.15823
C         31.18590       82.58063       -0.31411
C         32.15374       81.75401       -1.13871
O         31.72479       80.78175       -1.74479
H         29.90661       81.05596        0.41240
H         31.57916       82.73229        0.71029
H         31.08303       83.57377       -0.80165
N         33.48300       82.05496       -1.24943
C         34.18054       83.10419       -0.51242
C         35.26989       82.43622        0.32287
O         36.15240       81.83018       -0.26785
C         34.80349       84.11694       -1.50221
C         35.53587       85.26948       -0.84239
N         36.13764       86.20967       -1.60634
O         35.59276       85.36389        0.37465
H         34.05578       81.45932       -1.86947
H         33.47951       83.66780        0.12675
H         33.99393       84.54330       -2.13258
H         35.51690       83.58580       -2.17026
H         36.10673       86.15148       -2.63442
H         36.63974       86.99681       -1.16832
N         35.30737       82.46935        1.68623
C         34.30163       83.11231        2.51916
C         34.59165       82.98779        4.00123
O         35.61155       82.42290        4.38456
H         36.09901       81.98189        2.13488
H         33.31842       82.64055        2.31983
H         34.24321       84.19400        2.27535
N         33.70886       83.48578        4.91070
C         33.93718       83.40150        6.35437
C         32.68498       83.76512        7.15119
O         31.72970       84.28073        6.57900
C         35.11046       84.35317        6.72630
C         35.63841       84.21053        8.13079
C         35.56002       85.27967        9.03960
C         36.25563       83.01391        8.53042
C         36.09075       85.15129       10.32715
C         36.78881       82.88926        9.81626
C         36.70951       83.95933       10.71909
O         37.22762       83.85568       11.95951
H         32.83949       83.90349        4.54294
H         34.17541       82.33920        6.58578
H         34.77167       85.39673        6.53818
H         35.98056       84.18023        6.06099
H         35.09428       86.21409        8.75248
H         36.33677       82.18324        7.84059
H         36.02728       85.98193       11.01886
H         37.26961       81.96365       10.10645
H         37.67484       83.05331       12.26475
N         32.61043       83.51410        8.48984
C         31.44740       83.88447        9.30338
C         31.19610       85.38822        9.25831
O         32.02276       86.12845        8.74404
C         31.56566       83.39542       10.78815
C         31.35193       81.86545       10.88193
C         32.88287       83.84692       11.45992
C         31.27812       81.35245       12.32447
H         33.40235       83.02469        8.92749
H         30.54745       83.41406        8.85026
H         30.72841       83.85127       11.35906
H         32.14616       81.31725       10.33268
H         30.37344       81.62692       10.40863
H         33.76481       83.33107       11.02954
H         33.02232       84.94218       11.35600
H         32.87384       83.61867       12.54443
H         32.24991       81.46977       12.84498
H         30.49047       81.89635       12.89005
H         31.02314       80.27193       12.32340
N         30.03513       85.89751        9.77074
C         29.70554       87.31908        9.74669
C         28.40366       87.58368        8.99835
O         27.71778       86.65094        8.60630
C         29.62647       87.84030       11.18971
O         28.61833       87.16903       11.89605
H         29.35318       85.25167       10.19678
H         30.50362       87.88803        9.22329
H         29.41868       88.93212       11.19336
H         30.61251       87.66103       11.67637
H         28.71731       87.44236       12.84494
N         28.02352       88.87510        8.76526
C         26.80302       89.30771        8.08864
C         25.56865       88.90892        8.87206
O         24.63959       88.35086        8.30428
C         26.76149       88.81985        6.63383
H         28.64882       89.62550        9.09482
H         26.81782       90.42005        8.06675
H         27.67306       89.14863        6.09335
H         26.69291       87.71385        6.59094
H         25.87335       89.23974        6.11445
N         25.50523       89.19211       10.20507
C         24.41286       88.84738       11.10952
C         23.67678       87.56747       10.73460
O         22.45241       87.55011       10.74076
C         23.47629       90.05283       11.25927
H         26.31408       89.66755       10.63514
H         24.87307       88.64602       12.10231
H         24.04926       90.94503       11.58934
H         22.99603       90.28246       10.28284
H         22.68481       89.84685       12.01078
N         24.37108       86.45029       10.37396
C         23.70323       85.20060       10.04439
C         23.28235       84.51578       11.32235
O         22.09622       84.27533       11.49970
C         24.59199       84.27788        9.18146
C         24.71912       84.81037        7.74203
C         25.36500       83.76896        6.83325
O         25.20845       84.12098        5.48749
O         26.73668       83.65684        7.08495
H         25.39979       86.49864       10.31056
H         22.79150       85.40452        9.43644
H         24.07761       83.29360        9.10965
H         25.58929       84.11483        9.64675
H         25.26508       85.77646        7.69923
H         23.69169       84.97308        7.34928
N         24.20750       84.18314       12.26511
C         23.87206       83.53024       13.51391
H         22.78604       83.31594       13.60244
H         24.42430       82.57050       13.58528
H         24.16950       84.18327       14.36058
H         25.19957       84.41023       12.09891
Ca        27.40037       84.04955        4.94167
O         26.58929       80.76012        5.69062
H         27.33311       80.20041        6.02795
H         26.01662       80.91384        6.48332
O         29.34604       82.40331        6.26966
H         30.30426       82.17244        6.19495
H         29.11880       82.23009        7.21701
O         30.05691       84.20722        3.41110
H         30.65303       84.78971        3.94487
H         29.71908       84.79629        2.69080
O         27.18467       86.86842        4.02907
H         27.68255       86.74745        3.18259
H         27.85352       86.68123        4.73506

Ca 1.0



