%chk=apoCaM-CA-Ng.loop4.water5.frame639.chk
%nprocshared=20
%mem=10GB
%nosave
#b3lyp/svp scf=(tight,noincore,xqc) Test 
#IOP(5/87=12) Density=Current Pop=(MK,readradii) iop(6/33=2) iop(6/42=6)

apoCaM-CA-Ng.loop4.water5.frame639 

   -3  1 
C         81.70426       57.87638       -4.04757
C         81.99608       58.86078       -5.13515
O         82.17067       58.45445       -6.27500
H         80.70648       58.09371       -3.61405
H         81.70827       56.83922       -4.44565
H         82.46342       57.96257       -3.24892
N         82.03684       60.19377       -4.85075
C         82.24698       61.23111       -5.85200
C         81.14171       61.14720       -6.87889
O         81.40980       60.93565       -8.05292
C         83.65454       61.14616       -6.48040
C         84.71717       61.22212       -5.42756
O         84.82015       62.30814       -4.63789
O         85.48920       60.29121       -5.27999
H         81.87530       60.49624       -3.87777
H         82.17268       62.22679       -5.35756
H         83.79842       61.99135       -7.18940
H         83.77021       60.20165       -7.05218
N         79.85140       61.31925       -6.47891
C         78.71572       61.28084       -7.39457
C         78.25495       62.70873       -7.64615
O         78.47686       63.53969       -6.77469
C         77.58058       60.34280       -6.88488
C         76.99684       60.81796       -5.52467
C         78.09703       58.89305       -6.81192
C         75.80624       59.99326       -5.03426
H         79.68613       61.56419       -5.49192
H         79.06508       60.86648       -8.34840
H         76.76365       60.36614       -7.63918
H         76.64295       61.86506       -5.63290
H         77.77199       60.79041       -4.73152
H         77.28050       58.18779       -6.55719
H         78.49270       58.57810       -7.80117
H         78.90532       58.79556       -6.05641
H         74.99028       60.00326       -5.78657
H         76.10124       58.94703       -4.81603
H         75.42414       60.43341       -4.08851
N         77.69536       63.14617       -8.81490
C         77.36035       62.35237      -10.00204
C         78.58196       61.65837      -10.57861
O         78.51141       60.47497      -10.88215
C         76.75874       63.24860      -11.11376
C         75.46279       63.92112      -10.72523
O         75.42266       64.83571       -9.73731
O         74.43964       63.66912      -11.34077
H         77.51412       64.15906       -8.85749
H         76.59257       61.58956       -9.74375
H         76.55703       62.60468      -11.99962
H         77.49136       64.02724      -11.41922
N         79.76169       62.32555      -10.68391
C         80.99188       61.71660      -11.15250
C         80.98100       61.50317      -12.63989
O         80.72947       62.46023      -13.35878
H         79.81144       63.30011      -10.35088
H         81.21104       60.78118      -10.59389
H         81.82205       62.42689      -10.95005
N         81.34623       60.30260      -13.17891
C         81.52383       60.11081      -14.61617
C         80.67780       58.97048      -15.17353
O         80.71178       58.77038      -16.37977
C         83.01726       59.86195      -14.92108
C         83.90584       60.97236      -14.41704
O         84.00978       61.21836      -13.09622
O         84.56255       61.63720      -15.20209
H         81.60046       59.52720      -12.54685
H         81.22338       61.02915      -15.16717
H         83.14483       59.78385      -16.02196
H         83.35102       58.90730      -14.46025
N         79.88022       58.19060      -14.38638
C         79.03999       57.12869      -14.92129
C         79.78728       55.91287      -15.44525
O         79.11211       54.99801      -15.89402
H         79.81025       58.37681      -13.37658
H         78.39308       57.54761      -15.72257
H         78.37598       56.76146      -14.10890
N         81.14999       55.79207      -15.39348
C         81.88640       54.60532      -15.83619
C         81.60123       53.37312      -14.98358
O         82.10454       52.30812      -15.31353
C         81.68775       54.31627      -17.34459
C         82.02835       55.51807      -18.24099
C         83.43101       56.02785      -18.01276
N         83.63976       57.30249      -17.60988
O         84.38454       55.28388      -18.18700
H         81.71375       56.56079      -15.00613
H         82.97236       54.80129      -15.69511
H         80.64549       53.99994      -17.55611
H         82.35036       53.46911      -17.63142
H         81.29192       56.32751      -18.05061
H         81.92595       55.21188      -19.30398
H         82.84777       57.94222      -17.46656
H         84.59345       57.65447      -17.44186
N         80.90128       53.46322      -13.81620
C         80.73753       52.35289      -12.88636
C         81.60174       52.57483      -11.65232
O         81.55665       51.73130      -10.76508
C         79.23863       52.15848      -12.50117
C         78.62815       53.38495      -11.79533
C         78.39459       51.78605      -13.72650
H         80.55748       54.37975      -13.50584
H         81.09394       51.40098      -13.33876
H         79.17723       51.30301      -11.79118
H         78.59411       54.26941      -12.46411
H         77.58641       53.16182      -11.48047
H         79.20778       53.64374      -10.88440
H         77.34315       51.59292      -13.42160
H         78.40107       52.60361      -14.47744
H         78.79043       50.86079      -14.19625
N         82.41759       53.66912      -11.52024
C         83.20243       53.93896      -10.32583
C         84.69612       53.97695      -10.65746
O         85.07003       53.85445      -11.81839
C         82.68768       55.26601       -9.72049
C         83.07332       55.48475       -8.28023
N         82.60332       54.66029       -7.31400
O         83.77966       56.43221       -7.97472
H         82.47830       54.37018      -12.27292
H         83.04084       53.12236       -9.58927
H         81.57553       55.26290       -9.73170
H         83.02683       56.10711      -10.36479
H         81.97555       53.87689       -7.54848
H         82.84365       54.82080       -6.32474
N         85.60836       54.07369       -9.65552
C         87.06264       53.98967       -9.83836
C         87.74603       53.70001       -8.50049
O         87.04817       53.47365       -7.52449
C         87.65802       55.24444      -10.53484
C         87.67193       56.49110       -9.68004
C         86.49002       57.19344       -9.40649
C         88.89001       56.97391       -9.16436
C         86.52438       58.36022       -8.63307
C         88.92141       58.13051       -8.38420
C         87.74319       58.83116       -8.12074
O         87.79955       59.95802       -7.38517
H         85.22268       54.11424       -8.70319
H         87.28447       53.11700      -10.49287
H         87.15949       55.45526      -11.50475
H         88.70745       54.99551      -10.80026
H         85.54852       56.84851       -9.80957
H         89.81956       56.45350       -9.35835
H         85.60621       58.89951       -8.43806
H         89.86492       58.48666       -7.98862
H         87.01865       60.50098       -7.21745
N         89.09954       53.66979       -8.36186
C         89.74109       53.39877       -7.08062
C         90.53183       54.61443       -6.62973
O         91.72125       54.66219       -6.91682
C         90.64862       52.15348       -7.18611
C         89.86074       50.88863       -7.54920
C         90.75958       49.68560       -7.55672
O         90.52018       48.66098       -6.71609
O         91.70801       49.62788       -8.32341
H         89.70501       53.85323       -9.17645
H         89.01199       53.15035       -6.28999
H         91.13474       51.99293       -6.19701
H         91.44396       52.32223       -7.94641
H         89.39749       51.00097       -8.55283
H         89.05349       50.73234       -6.80095
N         90.00570       55.65932       -5.91756
C         88.61845       55.85883       -5.46749
C         88.14149       54.74645       -4.54467
O         88.85167       54.38743       -3.61523
C         88.50906       57.25042       -4.77252
C         89.25990       57.32779       -3.42550
C         89.74486       58.71847       -3.09671
O         88.92124       59.76521       -2.89895
O         90.94710       58.90923       -3.00530
H         90.67846       56.40968       -5.69198
H         87.96364       55.90672       -6.36510
H         87.45009       57.54970       -4.61385
H         88.94694       57.98113       -5.48593
H         90.17238       56.69880       -3.48442
H         88.62570       56.90943       -2.61296
N         86.93777       54.14515       -4.75379
C         86.47608       53.03231       -3.95271
H         85.47038       52.70905       -4.29824
H         87.17477       52.17474       -4.06240
H         86.41097       53.32683       -2.88477
H         86.32104       54.48790       -5.50377
Ca        86.68377       59.83806       -2.82979
O         84.89383       57.73665       -2.91550
H         85.02228       57.78785       -3.89641
H         85.54063       57.05359       -2.61032
O         86.10127       63.45296       -1.94364
H         85.54724       64.08295       -2.46952
H         86.11089       63.83449       -1.02995
O         86.24965       60.12592        0.07148
H         86.60828       59.27669        0.43287
H         85.83198       60.57416        0.84872
O         88.26633       62.28730       -4.78954
H         88.19576       63.03673       -5.43280
H         88.70289       61.56112       -5.30173
O         88.66090       61.93592       -0.93076
H         89.49591       61.40537       -0.89265
H         88.70484       62.52283       -0.13517

Ca 1.0



