%chk=apoCaM-CA-Ng.loop4.water3.frame398.chk
%nprocshared=20
%mem=10GB
%nosave
#b3lyp/svp scf=(tight,noincore,xqc) Test 
#IOP(5/87=12) Density=Current Pop=(MK,readradii) iop(6/33=2) iop(6/42=6)

apoCaM-CA-Ng.loop4.water3.frame398 

   -3  1 
C         20.68247       87.57135       18.18047
C         22.02569       88.00646       18.67814
O         22.48215       89.03807       18.23148
H         19.94371       88.37435       18.39667
H         20.72570       87.41412       17.08240
H         20.34682       86.63746       18.67323
N         22.70704       87.28877       19.61695
C         23.97107       87.70261       20.22389
C         23.77955       88.95517       21.04854
O         24.28032       90.00376       20.68725
C         25.20146       87.66336       19.26998
C         25.24887       88.50523       18.01381
O         25.40638       89.84596       18.04684
O         25.32070       87.93941       16.93410
H         22.28086       86.41845       19.96818
H         24.24835       86.93157       20.97871
H         25.29431       86.60111       18.95211
H         26.11313       87.89768       19.86321
N         23.04203       88.86584       22.20037
C         22.76806       89.91606       23.18481
C         24.00995       90.25153       24.01487
O         23.97449       90.01306       25.21504
C         22.01964       91.13477       22.57429
C         21.59373       92.18158       23.64545
C         20.78616       90.66012       21.77799
C         20.66112       91.66330       24.75160
H         22.62392       87.94634       22.41277
H         22.05479       89.46010       23.90706
H         22.69188       91.65543       21.86127
H         21.07620       93.01801       23.12807
H         22.49622       92.60200       24.13486
H         20.08583       90.08650       22.42063
H         20.24644       91.52652       21.34190
H         21.08913       90.00008       20.93903
H         19.71767       91.25535       24.33577
H         21.15806       90.88680       25.36803
H         20.39449       92.50128       25.42959
N         25.15589       90.74637       23.46698
C         26.37320       90.95101       24.23741
C         26.21853       92.10092       25.22986
O         26.46740       91.85788       26.40221
C         27.61374       91.08414       23.31696
C         27.81621       89.83037       22.50025
O         27.82815       89.88180       21.28147
O         27.99631       88.64379       23.11242
H         25.20313       90.94243       22.46733
H         26.58109       90.02512       24.82374
H         28.52084       91.22380       23.94349
H         27.53900       91.94283       22.62827
N         25.81954       93.37007       24.90442
C         25.46973       93.81236       23.55992
C         25.15716       95.30293       23.47024
O         25.01298       95.93419       24.50753
H         25.78769       94.05072       25.67802
H         24.60137       93.24011       23.17521
H         26.34197       93.62615       22.95568
N         25.03930       95.98643       22.28486
C         25.20969       95.46597       20.92469
C         24.14050       94.42148       20.64188
O         24.47044       93.25165       20.51647
C         26.66179       95.02222       20.61754
C         27.65450       96.07524       21.03173
O         27.59355       97.20160       20.56470
O         28.61137       95.77988       21.93267
H         24.81633       96.99237       22.35109
H         25.07869       96.30108       20.20624
H         26.75624       94.85022       19.52434
H         26.94006       94.07053       21.08685
N         22.81162       94.74264       20.58451
C         22.29575       96.10495       20.55707
C         21.62421       96.50516       21.83598
O         21.50622       95.70686       22.75422
H         22.12455       93.97841       20.50941
H         21.60568       96.22290       19.69406
H         23.09579       96.84613       20.40821
N         21.23574       97.80275       21.97856
C         20.72992       98.34520       23.23147
C         19.27195       97.98054       23.50056
O         18.85117       98.16108       24.63528
C         21.09502       99.84800       23.40087
C         20.70558      100.81689       22.26708
C         19.23565      100.87015       22.02276
N         18.39576      101.28101       22.99407
O         18.79644      100.55571       20.92891
H         21.43191       98.43620       21.19321
H         21.29970       97.85173       24.05223
H         22.20318       99.91277       23.47374
H         20.68796      100.21027       24.36952
H         21.22923      100.54929       21.32704
H         21.05295      101.83837       22.53322
H         18.74799      101.57004       23.91756
H         17.39011      101.31587       22.81286
N         18.46180       97.40847       22.55550
C         17.14967       96.83025       22.87662
C         15.96396       97.53233       22.22286
O         14.84782       97.12039       22.50489
C         17.11386       95.31650       22.48846
C         18.13674       94.49378       23.27982
C         17.31605       95.08282       20.97956
H         18.81064       97.32613       21.59057
H         16.96055       96.90216       23.97004
H         16.11093       94.91321       22.75292
H         19.16827       94.82352       23.05539
H         17.94974       94.59560       24.36890
H         18.04883       93.41733       23.01376
H         17.19807       94.00400       20.76249
H         16.55808       95.63027       20.38243
H         18.32730       95.39088       20.64306
N         16.10219       98.54944       21.32724
C         14.96267       99.12082       20.60969
C         15.03066       98.79708       19.12707
O         14.08725       99.17493       18.44007
C         14.88256      100.65670       20.80654
C         14.41309      101.07493       22.17981
N         13.18971      100.71295       22.63025
O         15.11285      101.79421       22.87285
H         17.04068       98.88645       21.08863
H         14.00595       98.67198       20.94983
H         14.13316      101.08240       20.10445
H         15.86705      101.11341       20.56031
H         12.55979      100.13950       22.05185
H         12.86139      101.02787       23.55532
N         16.05565       98.10029       18.54368
C         16.09892       97.86525       17.09877
C         17.22898       96.94591       16.64455
O         18.14587       96.64603       17.39926
C         16.20312       99.23060       16.35221
C         17.29908      100.10144       16.94263
C         16.95445      101.24556       17.68671
C         18.65755       99.77191       16.79810
C         17.94416      102.02601       18.28945
C         19.64677      100.55715       17.39656
C         19.29526      101.68092       18.14956
O         20.26024      102.41329       18.74137
H         16.82457       97.74000       19.12724
H         15.16041       97.33964       16.81075
H         15.23741       99.76084       16.46526
H         16.33621       99.10623       15.25686
H         15.91656      101.52284       17.82419
H         18.95919       98.90785       16.22885
H         17.65827      102.89087       18.87500
H         20.68823      100.28420       17.28297
H         20.05664      103.18146       19.29389
N         17.19506       96.47623       15.36262
C         18.22281       95.70087       14.66889
C         18.48757       94.30155       15.23386
O         19.26796       93.58817       14.62097
C         19.51325       96.54691       14.54384
C         20.47277       96.04777       13.44252
C         21.70790       96.89532       13.31677
O         21.92801       97.93817       14.14144
O         22.53398       96.62505       12.45986
H         16.37689       96.73889       14.78881
H         17.83792       95.54963       13.63446
H         20.02658       96.59570       15.52832
H         19.21687       97.57721       14.24580
H         19.93329       96.06628       12.46906
H         20.81665       95.01637       13.63704
N         17.86826       93.80259       16.34398
C         18.14104       92.45653       16.85131
C         16.92791       91.55304       16.68488
O         17.04549       90.36902       16.97179
C         18.53737       92.51821       18.34161
C         19.68763       93.48964       18.65216
C         21.01105       93.03239       18.12572
O         21.62079       93.70356       17.31042
O         21.56203       91.91298       18.62383
H         17.16968       94.36712       16.84478
H         18.97327       91.98533       16.28362
H         18.78863       91.50239       18.72293
H         17.64697       92.87302       18.89551
H         19.79184       93.57777       19.75437
H         19.44292       94.49735       18.25983
N         15.72825       92.02497       16.23428
C         14.57710       91.16719       16.07085
H         13.70591       91.76873       15.73316
H         14.79218       90.39098       15.30707
H         14.32125       90.68460       17.03770
H         15.60143       93.02016       16.00573
Ca        23.70128       91.31224       18.25434
O         24.54812       94.17080       17.37463
H         23.92117       94.93173       17.46423
H         25.38142       94.57733       17.02943
O         24.37740       91.27597       15.25477
H         23.43897       91.55381       15.10426
H         24.33215       90.29110       15.34693
O         26.85822       92.19335       19.01077
H         27.77344       92.49209       19.23923
H         26.70357       91.41114       19.59541

Ca 1.0



