%chk=apoCaM-CA-Ng.loop3.water4.frame1003.chk
%nprocshared=20
%mem=10GB
%nosave
#b3lyp/svp scf=(tight,noincore,xqc) Test 
#IOP(5/87=12) Density=Current Pop=(MK,readradii) iop(6/33=2) iop(6/42=6)

apoCaM-CA-Ng.loop3.water4.frame1003 

   0  1 
C         35.09595       60.22341       13.23730
C         34.84130       61.70202       13.20707
O         34.25717       62.21760       14.14959
H         35.71848       59.96988       14.12042
H         34.12802       59.68344       13.30624
H         35.62321       59.88270       12.32142
N         35.25079       62.45493       12.14721
C         35.00762       63.88972       12.05608
C         33.52265       64.21268       12.12718
O         33.15149       65.08228       12.90208
C         35.70894       64.53111       10.83082
C         35.40575       64.00058        9.45006
O         34.58500       62.95790        9.24198
O         35.95894       64.51175        8.49022
H         35.75646       61.98777       11.37947
H         35.48903       64.38465       12.93020
H         36.80543       64.41664       10.97713
H         35.47779       65.61773       10.84194
N         32.60316       63.50816       11.41373
C         31.17345       63.77622       11.49871
C         30.86907       65.14891       10.93392
O         31.02686       65.35660        9.73818
C         30.38724       62.68420       10.74077
C         30.46516       61.34224       11.49755
C         29.92220       60.14994       10.69794
C         30.88933       59.72966        9.57554
N         30.40863       58.53457        8.88463
H         32.92272       62.72225       10.83496
H         30.86245       63.74397       12.56721
H         30.80658       62.61016        9.71527
H         29.31257       62.95881       10.65132
H         29.86563       61.45841       12.42739
H         31.50605       61.10083       11.80236
H         28.91002       60.37750       10.29772
H         29.83393       59.29042       11.39757
H         31.88420       59.50587       10.02398
H         31.01989       60.54789        8.83708
H         29.49825       58.73603        8.41201
H         31.11236       58.25204        8.16433
H         30.29064       57.74741        9.56352
N         30.42636       66.14229       11.75945
C         30.02543       67.46206       11.28137
C         31.12221       68.24247       10.56759
O         30.78722       69.27146        9.99570
C         29.45586       68.32458       12.43492
C         30.50291       68.73693       13.44334
O         30.74260       69.92089       13.62095
O         31.17717       67.81582       14.15686
H         30.31520       65.92540       12.76094
H         29.20466       67.29184       10.54946
H         28.64415       67.77098       12.95327
H         29.00539       69.24436       11.99947
N         32.43512       67.85947       10.56803
C         33.46485       68.62689        9.88635
C         34.13772       67.79027        8.81532
O         33.40758       67.19718        8.03404
H         32.73294       67.01984       11.08270
H         34.14080       69.02979       10.65194
H         33.02931       69.50540        9.36674
N         35.49038       67.72073        8.61354
C         36.52132       68.43648        9.35720
C         37.59107       67.45017        9.80530
O         38.20719       66.83684        8.94490
C         37.10396       69.53372        8.44126
C         38.10435       70.45496        9.10260
N         38.61410       71.49549        8.40520
O         38.44814       70.28446       10.26244
H         35.81244       67.16431        7.80503
H         36.10474       68.96472       10.21851
H         36.25612       70.16824        8.10112
H         37.57001       69.07215        7.54351
H         38.32770       71.66374        7.42960
H         39.28729       72.14107        8.84387
N         37.89021       67.21349       11.11452
C         37.20583       67.85708       12.22753
C         37.71923       67.41167       13.57610
O         38.61736       66.58312       13.65448
H         38.63559       66.52579       11.30383
H         36.12139       67.61798       12.17698
H         37.34165       68.95619       12.16571
N         37.15473       67.92151       14.70660
C         37.58272       67.51504       16.04237
C         36.57350       67.93587       17.10873
O         35.65236       68.69274       16.82965
C         39.00559       68.07394       16.31221
C         39.68908       67.54620       17.54797
C         40.12780       68.42761       18.54974
C         39.93544       66.16922       17.68946
C         40.80373       67.93983       19.67232
C         40.60540       65.68354       18.81561
C         41.04603       66.56895       19.80950
O         41.70724       66.11603       20.89369
H         36.36817       68.57614       14.59070
H         37.58241       66.40230       16.04940
H         38.94432       69.18438       16.33515
H         39.67716       67.80794       15.47182
H         39.96060       69.49343       18.45714
H         39.61427       65.47191       16.92613
H         41.14695       68.62995       20.43271
H         40.78860       64.62057       18.90996
H         41.90522       65.17708       21.02041
N         36.63982       67.38508       18.34973
C         35.63558       67.62044       19.37965
C         35.70087       69.06689       19.84120
O         36.74912       69.48961       20.31007
C         35.84106       66.64356       20.58676
C         34.83507       66.88086       21.75032
C         35.78153       65.16447       20.14141
C         33.36006       66.64276       21.40446
H         37.39915       66.71985       18.54104
H         34.63354       67.39621       18.95184
H         36.85681       66.82252       21.00576
H         34.94304       67.91808       22.12788
H         35.10049       66.20371       22.59177
H         34.80678       64.92403       19.66949
H         36.57338       64.91460       19.40902
H         35.93424       64.49611       21.01539
H         33.01912       67.32628       20.60291
H         33.18226       65.59277       21.09486
H         32.73877       66.83385       22.30471
N         34.58541       69.85316       19.81346
C         34.52754       71.16520       20.44534
C         33.80362       72.19312       19.58926
O         32.74094       71.89880       19.06800
C         33.77593       71.00980       21.77689
O         33.77519       72.22447       22.47322
H         33.70270       69.44432       19.47170
H         35.54267       71.53500       20.71132
H         34.29873       70.24992       22.39689
H         32.73294       70.67236       21.58796
H         33.14541       72.11306       23.23150
N         34.25435       73.47921       19.54935
C         33.48730       74.61378       19.03678
C         32.17865       74.76433       19.81167
O         31.13254       74.97019       19.21017
C         33.27213       74.53497       17.51721
H         35.14628       73.69997       20.01769
H         34.08596       75.52900       19.24040
H         34.24797       74.45411       16.99516
H         32.64180       73.66397       17.24611
H         32.75920       75.45298       17.15636
N         32.17589       74.63201       21.17414
C         31.00292       74.77070       22.03801
C         29.84447       73.81743       21.72026
O         28.79866       73.96913       22.33779
C         30.53544       76.23042       22.03148
H         33.07106       74.43506       21.64217
H         31.31457       74.55887       23.08580
H         30.17624       76.54157       21.03052
H         29.71590       76.37329       22.76865
H         31.37828       76.88792       22.33667
N         29.93499       72.81704       20.79234
C         28.79639       71.98146       20.40650
C         28.24719       71.11892       21.53698
O         27.20691       70.50806       21.33262
C         29.15310       71.09839       19.18415
C         30.16371       69.97895       19.50863
C         30.60368       69.20965       18.29328
O         31.49135       68.21002       18.43931
O         30.18255       69.48044       17.17897
H         30.82051       72.67750       20.30090
H         27.99172       72.67694       20.07836
H         29.56438       71.76230       18.39084
H         28.22960       70.62464       18.78368
H         29.71146       69.26486       20.22856
H         31.06419       70.40427       19.98088
N         28.88759       70.99590       22.73652
C         28.38564       70.18410       23.82647
H         27.42570       69.68391       23.57966
H         29.13351       69.40317       24.07653
H         28.22446       70.82772       24.71622
H         29.77990       71.48096       22.90132
Ca        32.73091       68.49883       15.64781
O         34.57024       66.30182       15.15453
H         34.82315       65.35432       15.28471
H         34.84274       66.51199       14.22656
O         32.37580       65.72327       17.11717
H         32.89303       64.89850       17.29539
H         31.55757       65.62757       17.66606
O         34.40591       69.97496       13.49246
H         35.17501       70.57708       13.65545
H         33.93477       70.37712       12.72101
O         33.71330       71.34447       16.23524
H         33.96847       72.06234       15.60308
H         32.72289       71.35432       16.23452

Ca 1.0



