%chk=apoCaM-CA-Ng.loop4.water6.frame1011.chk
%nprocshared=20
%mem=10GB
%nosave
#b3lyp/svp scf=(tight,noincore,xqc) Test 
#IOP(5/87=12) Density=Current Pop=(MK,readradii) iop(6/33=2) iop(6/42=6)

apoCaM-CA-Ng.loop4.water6.frame1011 

   -3  1 
C         14.88522       43.26987       19.22027
C         14.92616       42.48473       17.92492
O         16.02979       42.17245       17.50875
H         13.88929       43.52050       19.61735
H         15.39696       42.68398       20.01277
H         15.43184       44.22657       19.08529
N         13.83126       42.06328       17.22050
C         12.43895       42.23860       17.61702
C         11.90914       40.93546       18.21997
O         10.77440       40.91189       18.67483
C         11.56091       42.68691       16.42452
C         12.28884       43.57480       15.44699
O         12.86013       44.72929       15.82922
O         12.40971       43.21449       14.28644
H         14.00647       41.48813       16.38303
H         12.35729       43.03469       18.37174
H         10.64130       43.18039       16.80444
H         11.21727       41.79587       15.86859
N         12.69752       39.81444       18.27596
C         12.31008       38.56282       18.91715
C         11.10983       37.88416       18.27447
O         10.53489       37.02586       18.93004
C         13.50296       37.54339       18.95930
C         13.99139       37.15696       17.52815
C         14.65578       38.08946       19.82472
C         15.01514       36.02250       17.50177
H         13.64828       39.86013       17.89897
H         12.02342       38.81111       19.96375
H         13.13193       36.62162       19.46047
H         14.43657       38.02992       17.00916
H         13.12891       36.80985       16.92548
H         15.45307       37.33015       19.95158
H         15.11156       38.99892       19.38118
H         14.28157       38.33980       20.83947
H         15.95232       36.30471       18.02084
H         14.58727       35.11058       17.96821
H         15.27428       35.78952       16.44643
N         10.74189       38.11682       16.97978
C          9.67522       37.36270       16.31843
C          8.67552       38.32114       15.68759
O          8.99438       39.49389       15.53396
C         10.34220       36.47068       15.24146
C          9.52270       35.34019       14.67418
O          8.32236       35.00638       15.17897
O         10.00021       34.65338       13.78564
H         11.28685       38.78760       16.41883
H          9.15706       36.72039       17.06224
H         11.23543       35.98208       15.68589
H         10.69220       37.12543       14.41573
N          7.44139       37.90246       15.28458
C          6.52976       38.77809       14.57306
C          7.03274       39.05888       13.17418
O          8.01323       38.46322       12.74619
H          7.12069       36.95108       15.49447
H          6.40259       39.71921       15.15063
H          5.53336       38.29459       14.47520
N          6.39487       39.98044       12.40441
C          6.78998       40.29778       11.03547
C          5.59254       40.20247       10.09458
O          4.49585       40.55270       10.50680
C          7.47962       41.68248       10.96988
C          6.67707       42.87990       11.41691
O          5.40871       42.76917       11.85267
O          7.19757       43.98346       11.38596
H          5.61048       40.49804       12.82782
H          7.56615       39.58399       10.69234
H          7.80988       41.86810        9.92600
H          8.39186       41.63547       11.60484
N          5.69805       39.81883        8.78816
C          6.93422       39.41949        8.13695
C          7.33522       37.99268        8.46495
O          6.54177       37.30572        9.09372
H          4.85095       39.87166        8.20031
H          7.71155       40.16952        8.35495
H          6.74438       39.42280        7.04419
N          8.50133       37.40743        8.03698
C          9.67063       38.04979        7.42728
C         10.45095       38.84309        8.45467
O          9.89627       39.68207        9.14840
C          9.42480       38.88192        6.14798
C          8.96304       38.04450        4.94627
C         10.05187       37.10351        4.47875
N          9.84883       35.76760        4.42653
O         11.13311       37.56052        4.13575
H          8.60642       36.39801        8.22906
H         10.35644       37.23297        7.11245
H         10.38035       39.37340        5.85707
H          8.73177       39.71538        6.32792
H          8.74344       38.73523        4.10425
H          8.02837       37.50030        5.19963
H          8.94607       35.35733        4.70293
H         10.60110       35.14058        4.10272
N         11.79261       38.63643        8.56327
C         12.65181       39.31937        9.51879
C         13.43686       38.30107       10.32995
O         13.38363       37.11184       10.03755
C         13.57125       40.34314        8.79474
C         12.75035       41.54650        8.30622
C         14.32636       39.72186        7.60870
H         12.24082       37.96772        7.91755
H         12.03469       39.87982       10.25713
H         14.31395       40.73407        9.52396
H         11.97361       41.23398        7.57603
H         12.25069       42.04036        9.16772
H         13.41315       42.29556        7.82320
H         13.62366       39.40263        6.80835
H         15.01907       40.46600        7.16290
H         14.90704       38.84103        7.94159
N         14.11696       38.70449       11.43745
C         14.74260       37.77970       12.37892
C         16.16683       38.17030       12.76099
O         16.76215       37.44515       13.54275
C         13.83495       37.69148       13.61936
C         13.63515       39.04799       14.23498
N         12.43492       39.66024       14.15440
O         14.57500       39.62008       14.76504
H         14.06723       39.70443       11.69209
H         14.79310       36.75533       11.94767
H         14.22848       36.98035       14.37590
H         12.85481       37.29522       13.27453
H         11.63242       39.21546       13.68612
H         12.32318       40.60477       14.52847
N         16.78168       39.28881       12.26643
C         18.17131       39.61930       12.59104
C         18.42153       41.12287       12.54526
O         17.55326       41.86858       12.12208
C         19.09278       38.82927       11.63461
C         18.77387       39.13678       10.18652
C         19.21523       40.32915        9.59056
C         17.99925       38.24082        9.42901
C         18.88278       40.62524        8.26571
C         17.66046       38.54246        8.10751
C         18.09766       39.73893        7.52224
O         17.76567       40.04893        6.25279
H         16.29299       39.86887       11.57355
H         18.38015       39.31354       13.64027
H         18.89551       37.75150       11.82601
H         20.17238       38.99157       11.84177
H         19.81831       41.02840       10.14955
H         17.63513       37.31997        9.86782
H         19.22992       41.54874        7.81970
H         17.04989       37.84935        7.54297
H         17.20368       39.47455        5.71320
N         19.60753       41.63431       12.99571
C         19.93411       43.05858       12.96003
C         20.07110       43.57928       14.38303
O         21.13102       44.04036       14.78163
C         21.21160       43.24152       12.10551
C         21.60306       44.70706       11.84428
C         20.52422       45.45520       11.11437
O         20.14947       45.07978       10.01479
O         19.96561       46.54587       11.67238
H         20.30904       40.98696       13.38529
H         19.11288       43.63190       12.48075
H         21.04983       42.75827       11.11917
H         22.06044       42.71638       12.59715
H         22.52588       44.72223       11.22603
H         21.83372       45.22770       12.79488
N         19.00635       43.48673       15.22428
C         19.04486       43.87455       16.62795
C         19.09168       42.63397       17.51088
O         19.12968       42.78771       18.72460
C         17.82451       44.76418       16.96027
C         17.87493       46.12821       16.26353
C         16.64184       46.93157       16.57588
O         15.92850       47.33527       15.67262
O         16.32171       47.22094       17.85200
H         18.14265       43.04742       14.87291
H         19.97081       44.44239       16.86849
H         17.78555       44.94515       18.05761
H         16.89569       44.24465       16.65392
H         17.95744       45.99120       15.16396
H         18.76441       46.68907       16.62114
N         19.14838       41.37302       16.98680
C         19.27227       40.19818       17.81922
H         20.20946       40.25699       18.41350
H         18.39926       40.11665       18.49901
H         19.31933       39.28932       17.18127
H         19.13161       41.21922       15.96907
Ca        14.09780       45.74219       14.22647
O         12.32573       44.91693       11.38107
H         12.38199       44.98448       10.39480
H         12.12377       43.96289       11.55222
O         11.45126       47.13502       13.96436
H         11.95399       47.37997       14.78184
H         11.08197       46.23720       14.15964
O         14.17402       47.62260       11.83329
H         14.80836       48.06420       11.21477
H         13.44169       48.27852       11.95106
O         15.10536       43.53648       10.52375
H         14.79252       44.16302        9.82389
H         16.08472       43.48601       10.38863
O         15.50310       42.99734       14.32704
H         15.76341       43.27423       13.41324
H         15.90255       42.09879       14.44047
O         16.92464       45.63118       12.31206
H         17.03793       46.49416       12.78373
H         16.92798       45.87174       11.35156

Ca 1.0



