%chk=apoCaM-CA-Ng.loop2.water3.frame279.chk
%nprocshared=20
%mem=10GB
%nosave
#b3lyp/svp scf=(tight,noincore,xqc) Test 
#IOP(5/87=12) Density=Current Pop=(MK,readradii) iop(6/33=2) iop(6/42=6)

apoCaM-CA-Ng.loop2.water3.frame279 

   -2  1 
C         42.21993       45.64237       37.15260
C         43.20757       46.08385       38.19029
O         43.38435       45.38456       39.17395
H         41.42308       46.40949       37.05261
H         42.73029       45.51106       36.17667
H         41.74669       44.67986       37.44524
N         43.90991       47.23813       38.02310
C         44.83113       47.76452       39.02703
C         44.02622       48.30043       40.20154
O         43.19902       49.17626       39.98270
C         45.68948       48.88638       38.39979
C         46.75984       49.42939       39.31248
O         47.50508       50.30499       38.90366
O         46.92376       48.95700       40.56392
H         43.78018       47.75846       37.14090
H         45.52938       46.95540       39.33842
H         45.03414       49.72241       38.07049
H         46.19931       48.47283       37.50181
N         44.19503       47.81941       41.46994
C         43.33982       48.25154       42.57459
C         42.04815       47.44753       42.61780
O         41.13880       47.83842       43.33606
C         44.08746       48.19337       43.90620
H         44.87391       47.05967       41.63141
H         43.06115       49.31709       42.40944
H         43.44236       48.57688       44.72603
H         44.38749       47.15034       44.13967
H         44.99698       48.82943       43.85285
N         41.88466       46.33713       41.83864
C         40.63321       45.62348       41.64264
C         40.12719       45.02633       42.94307
O         39.04653       45.38337       43.39354
C         39.62717       46.56901       40.94406
C         38.39095       45.88032       40.44131
O         37.53127       46.54032       39.88250
O         38.22703       44.54902       40.57161
H         42.68284       45.98868       41.30327
H         40.82816       44.78305       40.93772
H         40.12428       47.02512       40.05920
H         39.33001       47.38756       41.63288
N         40.87098       44.08741       43.59588
C         40.46025       43.49156       44.85785
C         40.25851       41.99081       44.79324
O         39.89902       41.44041       45.82469
H         41.77467       43.79665       43.19189
H         39.50587       43.93274       45.21646
H         41.23616       43.71516       45.62095
N         40.46390       41.25199       43.65875
C         40.25816       39.80608       43.61399
C         41.57463       39.10017       43.36104
O         42.22377       39.36355       42.35782
C         39.24688       39.42256       42.51786
C         38.96318       37.93399       42.56402
N         39.31293       37.11980       41.54212
O         38.42740       37.45693       43.55318
H         40.78878       41.71423       42.79709
H         39.83810       39.44830       44.57951
H         39.65553       39.71924       41.52928
H         38.29005       39.96778       42.66569
H         39.78144       37.48892       40.70907
H         39.13371       36.10620       41.59149
N         42.00767       38.15175       44.23385
C         43.22508       37.38834       44.05127
C         43.16863       36.51933       42.81345
O         42.24314       35.73098       42.67970
H         41.44435       37.94840       45.07381
H         43.34555       36.71124       44.92472
H         44.10090       38.07220       44.03263
N         44.18341       36.55704       41.90463
C         44.27469       35.63311       40.77658
C         43.25058       35.93741       39.69239
O         42.49036       35.04072       39.35322
C         45.72702       35.52364       40.22319
C         46.33163       36.79696       39.61445
O         46.58251       35.01573       41.21914
H         44.96970       37.19423       42.09411
H         44.07183       34.60460       41.15733
H         45.70851       34.76510       39.40948
H         46.71030       35.71761       41.90854
H         46.38518       37.62006       40.35498
H         47.36170       36.57709       39.26231
H         45.75599       37.13020       38.73492
N         43.16709       37.16795       39.10424
C         42.23165       37.47596       38.01715
C         41.16807       38.44635       38.48181
O         41.28179       38.98988       39.57142
C         42.97038       38.00408       36.74677
C         43.81176       39.27659       37.04924
C         43.81774       36.88101       36.12534
C         44.40684       39.93736       35.80499
H         43.76910       37.92175       39.46445
H         41.66938       36.55936       37.73279
H         42.19922       38.27315       35.99208
H         44.64534       39.03952       37.74159
H         43.16132       40.03471       37.53566
H         44.27205       37.20361       35.16722
H         44.62239       36.55416       36.81242
H         43.17261       36.00621       35.89602
H         45.12627       39.26857       35.29177
H         43.59961       40.22822       35.10050
H         44.95904       40.85308       36.10683
N         40.07102       38.67571       37.70014
C         38.94487       39.50108       38.11732
C         37.65588       38.66426       38.07228
O         36.61715       39.16498       37.66995
C         38.91105       40.73548       37.19017
C         37.95817       41.82104       37.60581
O         37.21410       41.71453       38.72378
O         37.87981       42.83195       36.92722
H         40.01148       38.21962       36.77602
H         39.09974       39.84970       39.16016
H         38.67703       40.40573       36.15443
H         39.92462       41.19335       37.18117
N         37.68321       37.33908       38.40724
C         36.54057       36.42439       38.30243
C         35.95329       36.44061       36.88603
O         36.73260       36.31744       35.94711
C         37.02838       34.98073       38.60504
C         35.94448       33.93974       38.42416
C         34.91760       33.78363       39.37063
C         35.95027       33.12165       37.27976
C         33.91072       32.83174       39.16719
C         34.93880       32.18057       37.07599
C         33.91927       32.03497       38.01854
H         38.58592       36.94166       38.70690
H         35.77841       36.71470       39.05289
H         37.46186       34.89774       39.62592
H         37.85341       34.76315       37.89046
H         34.89507       34.39860       40.26153
H         36.72666       33.22736       36.53232
H         33.11957       32.71414       39.89629
H         34.94434       31.56793       36.18362
H         33.13616       31.30538       37.85681
N         34.60368       36.51273       36.62787
C         34.03606       36.38891       35.28729
C         34.35596       37.54997       34.36745
O         34.20019       37.42208       33.16325
C         32.52193       36.35374       35.52713
C         32.43795       35.73091       36.90432
C         33.55268       36.47808       37.62687
H         34.39937       35.42258       34.86848
H         32.13799       37.39569       35.64191
H         31.93889       35.85362       34.72536
H         31.44294       35.80997       37.39097
H         32.72025       34.65649       36.82039
H         33.23923       37.52272       37.84643
H         33.80403       35.95622       38.56334
N         34.71754       38.74966       34.89569
C         34.99766       39.94233       34.10813
C         36.18596       39.69547       33.20714
O         36.09278       39.96031       32.01567
C         35.28865       41.12486       35.04999
C         34.05423       41.52716       35.88119
C         34.45472       42.54585       36.90048
O         35.04328       43.68978       36.51212
O         34.30979       42.31378       38.09043
H         34.78594       38.82226       35.91818
H         34.11444       40.21888       33.48887
H         35.60857       42.01066       34.45714
H         36.12354       40.84039       35.72263
H         33.62381       40.65383       36.41569
H         33.26887       41.94178       35.21297
N         37.33267       39.15738       33.70397
C         38.48481       38.90124       32.87007
H         39.27716       38.39870       33.46407
H         38.20333       38.23990       32.02232
H         38.88296       39.86015       32.47689
H         37.38140       38.89389       34.70007
Ca        36.04793       44.93609       38.08649
O         37.12246       46.58599       35.86484
H         36.93679       45.76499       35.34302
H         38.09822       46.55945       36.03073
O         33.81842       46.55626       39.04176
H         33.75926       45.66669       39.47348
H         34.68408       46.92513       39.35117
O         35.50300       43.63451       40.86967
H         35.62894       43.92602       41.80751
H         35.08302       42.74101       40.93880

Ca 1.0



