%chk=holoCaM-CaMKII.loop2.water2.frame452.chk
%nprocshared=20
%mem=10GB
%nosave
#b3lyp/svp scf=(tight,noincore,xqc) Test 
#IOP(5/87=12) Density=Current Pop=(MK,readradii) iop(6/33=2) iop(6/42=6)

holoCaM-CaMKII.loop2.water2.frame452 

   -2  1 
C         73.09084       34.77930       55.40210
C         74.23354       33.84197       55.66213
O         74.69267       33.18219       54.74175
H         72.22303       34.50024       56.03535
H         73.40168       35.81663       55.65120
H         72.78500       34.74851       54.33471
N         74.75805       33.75064       56.91396
C         75.91106       32.92118       57.24224
C         75.62983       31.44474       57.01089
O         74.67666       30.91610       57.56580
C         76.33219       33.15822       58.70365
C         77.59325       32.41489       59.02771
O         78.60889       32.63999       58.39227
O         77.60872       31.49444       60.00970
H         74.33978       34.33538       57.65497
H         76.75951       33.24747       56.60073
H         75.51775       32.84542       59.39215
H         76.52623       34.24183       58.85834
N         76.46270       30.71957       56.21272
C         76.30041       29.30391       55.91463
C         77.50827       28.47918       56.35999
O         77.52246       27.29366       56.05570
C         76.07895       29.14169       54.40473
H         77.26626       31.20030       55.79126
H         75.40032       28.89004       56.41948
H         75.19472       29.73333       54.08398
H         76.96546       29.47877       53.83223
H         75.88929       28.07680       54.15042
N         78.53396       28.99821       57.11134
C         79.67104       28.16829       57.53190
C         80.48088       28.68219       58.73568
O         81.15784       27.85382       59.33001
C         80.59732       27.84056       56.33477
C         81.22574       29.06032       55.70940
O         81.98297       28.93195       54.76107
O         80.95415       30.29402       56.17031
H         78.45769       29.96791       57.43117
H         79.23221       27.21867       57.91370
H         80.02069       27.31659       55.54412
H         81.40542       27.15631       56.67182
N         80.47896       29.97822       59.17281
C         81.12459       30.41171       60.41003
C         82.29228       31.36418       60.21502
O         82.82410       31.82405       61.21548
H         79.98885       30.69880       58.64003
H         81.50910       29.54626       60.99150
H         80.35251       30.90788       61.03612
N         82.79466       31.65987       58.98335
C         84.02556       32.43236       58.78662
C         83.85888       33.96179       58.89153
O         84.85323       34.65168       58.71076
C         84.72763       31.99549       57.47440
C         83.84343       32.06675       56.23794
N         84.60182       31.80646       55.02131
O         83.22484       33.29707       56.15456
H         82.37123       31.19605       58.16938
H         84.75786       32.14656       59.57461
H         85.04137       30.93344       57.57159
H         85.64383       32.60659       57.32550
H         84.88605       30.80177       55.02460
H         83.96587       31.93748       54.20160
N         82.68328       34.56863       59.23615
C         82.56430       36.01341       59.46274
C         82.54931       36.90018       58.21487
O         82.46375       38.10832       58.37938
H         81.86800       33.98334       59.46213
H         83.38073       36.33829       60.14612
H         81.60702       36.20860       59.99155
N         82.61205       36.39083       56.95227
C         82.60082       37.18160       55.71737
C         81.50987       36.69419       54.76447
O         81.45964       35.50865       54.47557
C         83.97224       37.07369       55.00890
C         85.06725       37.79480       55.79568
O         84.34860       35.73075       54.83093
H         82.69239       35.38122       56.85503
H         82.43120       38.26127       55.92713
H         83.91595       37.59533       54.02297
H         83.97312       35.42917       53.96382
H         85.19849       37.34607       56.80211
H         86.02864       37.72730       55.24354
H         84.80864       38.87033       55.90831
N         80.63087       37.57050       54.19148
C         79.60970       37.15636       53.22066
C         80.27731       36.58133       51.96380
O         81.00417       37.29489       51.28703
C         78.65928       38.34461       52.84767
C         77.91515       38.87466       54.10790
C         77.63890       37.90620       51.77517
C         77.02006       40.08861       53.84238
H         80.70870       38.56598       54.44486
H         78.97903       36.37305       53.69434
H         79.27621       39.16653       52.42046
H         78.64801       39.19015       54.87695
H         77.29068       38.06794       54.54523
H         78.14886       37.54497       50.86110
H         76.98415       37.10064       52.16726
H         77.00965       38.75430       51.44432
H         76.57205       40.43021       54.79933
H         77.61494       40.92082       53.41081
H         76.18100       39.83950       53.16238
N         80.06114       35.28107       51.60542
C         80.66583       34.62371       50.43832
C         79.88323       34.90599       49.17352
O         78.89350       35.62227       49.23107
C         80.66579       33.09357       50.65283
C         81.33219       32.77518       51.94120
O         80.58667       32.30562       52.94922
O         82.50201       33.07120       52.12935
H         79.47940       34.71088       52.23427
H         81.72393       34.95348       50.32999
H         81.18449       32.55134       49.83525
H         79.61376       32.73759       50.70192
N         80.24503       34.34038       47.98603
C         79.45532       34.49295       46.77397
C         78.06949       33.84307       46.93195
O         77.10481       34.55896       46.71663
C         80.21244       33.98097       45.52404
C         79.46612       34.29974       44.25264
C         79.29710       35.63581       43.84829
C         78.93849       33.26909       43.45623
C         78.61321       35.93429       42.66751
C         78.24824       33.57312       42.27898
C         78.08739       34.90417       41.88411
H         81.11224       33.78115       47.94232
H         79.32116       35.58568       46.60485
H         80.40479       32.90068       45.57149
H         81.21208       34.46417       45.46682
H         79.70313       36.44579       44.44136
H         79.05313       32.23265       43.74939
H         78.49270       36.96496       42.36010
H         77.83860       32.77636       41.67212
H         77.55650       35.13778       40.97074
N         77.85595       32.53132       47.31976
C         76.52226       31.92307       47.41709
C         75.60543       32.51198       48.47757
O         74.48296       32.03839       48.60607
C         76.80359       30.46061       47.79196
C         78.17074       30.23409       47.19138
C         78.86857       31.53024       47.58436
H         76.05672       31.98265       46.40819
H         76.94056       30.37898       48.89721
H         76.00850       29.74490       47.49017
H         78.67730       29.31125       47.54518
H         78.07052       30.19844       46.08255
H         79.07716       31.52152       48.67607
H         79.81600       31.62851       47.04476
N         76.01674       33.51885       49.29162
C         75.22855       34.07833       50.37373
C         74.70224       35.42485       49.92937
O         73.49835       35.63038       49.97715
C         76.10141       34.16823       51.64247
C         76.63408       32.78036       52.04653
C         77.52421       32.80621       53.25285
O         78.11841       31.66660       53.64062
O         77.73698       33.83553       53.87245
H         76.95497       33.91515       49.16880
H         74.35183       33.43297       50.61132
H         75.50492       34.59955       52.47550
H         76.97032       34.83396       51.44696
H         77.23481       32.36150       51.21198
H         75.78614       32.09188       52.24985
N         75.54300       36.36130       49.40645
C         75.09766       37.62210       48.85347
H         74.00238       37.76617       48.95432
H         75.61944       38.45534       49.36460
H         75.35390       37.64946       47.77220
H         76.54634       36.15926       49.34524
Ca        81.46916       32.71274       54.92182
O         79.99066       34.98895       57.89896
H         79.96550       35.95355       57.68269
H         79.71096       34.94637       58.84782
O         77.76158       35.68560       56.32169
H         77.34027       35.89375       55.45275
H         77.09083       35.95949       56.99553

Ca 1.0



