%chk=holoCaM.loop1.water2.frame412.chk
%nprocshared=20
%mem=10GB
%nosave
#b3lyp/svp scf=(tight,noincore,xqc) Test 
#IOP(5/87=12) Density=Current Pop=(MK,readradii) iop(6/33=2) iop(6/42=6)

holoCaM.loop1.water2.frame412 

   0  1 
C         91.29461       87.07318       24.64006
C         92.49736       87.80445       24.12251
O         92.47332       88.30994       23.00956
H         90.46997       87.07995       23.89795
H         91.57408       86.02037       24.85944
H         90.94264       87.55266       25.57843
N         93.60190       87.89484       24.90681
C         94.83042       88.57003       24.50971
C         95.45462       87.86208       23.30555
O         95.68650       86.66366       23.37630
C         95.79525       88.56609       25.71344
C         97.03996       89.37511       25.53144
O         97.22304       90.05320       24.53552
O         97.95918       89.36549       26.50999
H         93.55366       87.46589       25.84529
H         94.59159       89.63257       24.27185
H         96.08020       87.51820       25.94538
H         95.27538       88.99340       26.59939
N         95.75498       88.55761       22.17144
C         96.31089       87.97100       20.94927
C         97.72965       88.42929       20.63574
O         98.31049       87.84066       19.73295
C         95.38531       88.27443       19.73304
C         94.37896       87.15483       19.40746
C         95.04577       85.85479       18.89114
C         95.80907       86.03803       17.56040
N         96.47090       84.79811       17.15830
H         95.58515       89.56309       22.19011
H         96.43256       86.88068       21.08703
H         95.97033       88.47198       18.81520
H         94.84821       89.22852       19.90879
H         93.68671       87.51826       18.61587
H         93.77482       86.93712       20.31416
H         94.25030       85.09608       18.72932
H         95.73458       85.44482       19.65400
H         96.59493       86.81414       17.64821
H         95.09536       86.35608       16.76781
H         97.19201       84.53833       17.87091
H         95.77482       84.02536       17.05832
H         96.95116       84.94921       16.24130
N         98.37341       89.41721       21.31990
C         99.78408       89.74589       21.09146
C        100.62631       89.51724       22.34211
O        101.82532       89.75225       22.28851
C         99.93297       91.16852       20.51289
C         99.45744       92.29630       21.38698
O         98.99460       92.07914       22.63285
O         99.46133       93.43068       20.93815
H         97.86085       89.93953       22.04072
H        100.21634       89.07422       20.31764
H         99.34639       91.19885       19.56723
H        100.99785       91.35143       20.25077
N        100.08366       89.00976       23.48768
C        100.85319       88.69887       24.67638
C        101.48281       89.91862       25.29910
O        102.69436       89.92761       25.46507
H         99.08565       88.77158       23.52370
H        101.62992       87.94453       24.42354
H        100.17727       88.24320       25.43172
N        100.71554       90.97625       25.69420
C        101.26278       92.15032       26.37624
C        100.68809       92.35786       27.77882
O        101.34561       93.01729       28.57129
C        101.14971       93.41754       25.50291
C         99.75940       93.82866       25.09117
O         99.62010       94.82158       24.39669
O         98.67239       93.11765       25.43933
H         99.70908       90.93241       25.49278
H        102.35262       91.99632       26.53562
H        101.73003       93.24598       24.57081
H        101.61688       94.26620       26.04801
N         99.48398       91.84335       28.16198
C         98.93757       91.95579       29.50810
C         97.66759       92.78041       29.55820
O         97.03510       92.79753       30.60619
H         98.90491       91.34652       27.47971
H         99.66347       92.39922       30.22212
H         98.71047       90.92525       29.85730
N         97.24929       93.52125       28.49327
C         96.03784       94.33143       28.48033
C         95.12455       93.91990       27.33268
O         95.49522       93.09032       26.50961
C         96.40282       95.84191       28.39639
C         96.94246       96.38378       29.72700
O         97.31072       96.09640       27.35180
H         97.82652       93.53942       27.64519
H         95.44712       94.16931       29.40958
H         95.48567       96.43573       28.19803
H         98.22181       95.84105       27.65653
H         97.86264       95.84817       30.03887
H         97.17217       97.46616       29.62057
H         96.17041       96.27091       30.51805
N         93.87437       94.45358       27.25976
C         92.87821       94.14211       26.24122
C         92.48955       95.43519       25.53891
O         92.12637       96.39887       26.20174
C         91.65885       93.44119       26.91361
C         92.04135       92.05610       27.51461
C         90.45767       93.29558       25.96073
C         92.47590       90.99042       26.49265
H         93.58854       95.11428       28.00102
H         93.28360       93.45031       25.47418
H         91.31447       94.08537       27.75372
H         91.16222       91.65376       28.06362
H         92.85986       92.18567       28.25429
H         90.10098       94.28989       25.62148
H         90.71800       92.69890       25.06722
H         89.61142       92.80505       26.48749
H         91.66851       90.77253       25.76370
H         93.38935       91.29201       25.94349
H         92.70569       90.04283       27.02334
N         92.51547       95.50381       24.17898
C         92.21746       96.70201       23.40151
C         90.79462       96.67570       22.86351
O         90.05007       95.74887       23.14802
C         93.23788       96.83056       22.23687
C         94.66864       96.88993       22.75178
O         93.09594       95.74087       21.35947
H         92.76350       94.65547       23.65688
H         92.29530       97.60604       24.04546
H         93.05032       97.77687       21.68749
H         93.54690       95.98407       20.50950
H         95.36053       97.06904       21.90587
H         94.78927       97.71721       23.48200
H         94.92097       95.92188       23.22125
N         90.36085       97.69225       22.06412
C         89.02864       97.79029       21.47310
C         88.70799       96.54792       20.66348
O         87.67677       95.93611       20.90020
C         88.95115       99.05588       20.57682
C         87.56256       99.26180       19.96973
O         89.26605      100.19486       21.34057
H         91.02783       98.44694       21.85363
H         88.27836       97.89396       22.28906
H         89.67082       98.94588       19.72802
H         90.16330      100.51090       21.05367
H         87.27552       98.40253       19.32851
H         86.80752       99.38617       20.77464
H         87.56692      100.17640       19.33931
N         89.56246       96.11295       19.69829
C         89.33877       94.89899       18.92018
C         89.24477       93.68691       19.82665
O         88.30279       92.91648       19.70104
C         90.47472       94.69681       17.88403
C         90.40768       95.77701       16.79060
C         91.41793       95.55049       15.65803
C         91.16277       96.56176       14.52711
N         92.06471       96.34707       13.39716
H         90.42607       96.65378       19.53781
H         88.38458       94.97790       18.35314
H         90.32783       93.71073       17.38916
H         91.47275       94.68830       18.37854
H         90.56783       96.78652       17.22604
H         89.38802       95.73950       16.34945
H         91.28865       94.52440       15.24967
H         92.45638       95.65301       16.04396
H         91.28930       97.59847       14.91099
H         90.11392       96.44804       14.17069
H         91.94995       95.37672       13.02382
H         91.82377       97.02681       12.63927
H         93.05558       96.50217       13.69137
N         90.20873       93.45008       20.75333
C         90.26409       92.23273       21.56306
C         89.14168       92.15486       22.59710
O         89.02205       91.12604       23.24831
C         91.65296       92.10296       22.23699
C         92.77117       92.20956       21.17709
C         94.16338       92.13074       21.69758
O         94.62402       92.92248       22.68513
O         94.95405       91.42546       21.10213
H         90.95181       94.15526       20.83567
H         90.16390       91.36496       20.87294
H         91.72551       91.13124       22.77465
H         91.76492       92.90939       22.97829
H         92.74492       93.17651       20.65379
H         92.62335       91.41490       20.41219
N         88.28226       93.19231       22.81010
C         87.19745       93.13220       23.76433
H         86.48718       92.32756       23.48040
H         87.59204       92.94604       24.78426
H         86.64856       94.09968       23.76867
H         88.38983       94.06605       22.28808
Ca        96.80245       92.44137       23.02079
O         97.07499       95.17358       21.32145
H         97.04045       94.20886       21.11121
H         96.58752       95.59475       20.57086
O         96.80242       95.37135       24.71404
H         96.08884       95.86434       25.19189
H         97.22327       96.05223       24.13127

Ca 1.0



