%chk=holoCaM.loop2.water2.frame181.chk
%nprocshared=20
%mem=10GB
%nosave
#b3lyp/svp scf=(tight,noincore,xqc) Test 
#IOP(5/87=12) Density=Current Pop=(MK,readradii) iop(6/33=2) iop(6/42=6)

holoCaM.loop2.water2.frame181 

   -2  1 
C         27.20304       86.86581       99.69596
C         27.23285       88.37200       99.73109
O         27.45426       88.99228       98.70239
H         26.41103       86.52350       98.99661
H         28.18339       86.46763       99.36482
H         26.97559       86.43923      100.69787
N         26.98191       89.02450      100.89647
C         26.89568       90.47560      101.03547
C         28.22317       91.18337      100.79101
O         29.21422       90.82473      101.41156
C         26.39795       90.79706      102.45627
C         26.22330       92.26412      102.66991
O         26.90829       92.87923      103.65205
O         25.46546       92.90151      101.95693
H         26.78159       88.44637      101.72824
H         26.13180       90.85744      100.32317
H         27.11581       90.40011      103.20661
H         25.41509       90.30593      102.61916
N         28.27861       92.26302       99.95225
C         29.48258       93.05552       99.71429
C         29.33534       94.52913      100.12633
O         30.30962       95.25309       99.97025
C         29.83237       92.97229       98.22279
H         27.41896       92.54606       99.46305
H         30.33837       92.63970      100.28878
H         30.76817       93.53039       98.00425
H         29.98463       91.91289       97.92544
H         29.01181       93.39972       97.60580
N         28.17561       95.06304      100.62636
C         28.00067       96.51111      100.83005
C         27.03544       96.90692      101.96641
O         26.89254       98.10059      102.19520
C         27.58452       97.16277       99.49566
C         26.45827       96.41859       98.86611
O         25.32482       96.21780       99.54446
O         26.58654       95.93612       97.75134
H         27.34271       94.46259      100.66569
H         28.97065       96.97107      101.12039
H         28.44082       97.14067       98.78770
H         27.29983       98.22564       99.64947
N         26.38597       96.00110      102.75172
C         25.58088       96.36262      103.91744
C         24.25778       97.06869      103.64496
O         23.59895       97.41834      104.61429
H         26.54276       95.00785      102.58918
H         26.20076       96.99814      104.58692
H         25.33249       95.43481      104.47772
N         23.78912       97.31620      102.38905
C         22.53965       98.03929      102.11803
C         21.25047       97.26980      102.48379
O         20.17786       97.80453      102.23783
C         22.51088       98.50378      100.63881
C         22.40192       97.39642       99.63289
N         22.38672       97.67578       98.31150
O         22.32288       96.24075      100.00376
H         24.37476       97.04164      101.59421
H         22.55864       98.98316      102.70585
H         23.44048       99.07803      100.42966
H         21.64706       99.18440      100.48363
H         22.46251       98.64546       97.97392
H         22.29805       96.91668       97.62455
N         21.26279       96.04229      103.08720
C         20.05999       95.33390      103.51973
C         19.37549       94.49089      102.44966
O         18.39883       93.83726      102.78736
H         22.15893       95.63349      103.36888
H         19.34280       96.04963      103.98099
H         20.35460       94.62155      104.31974
N         19.80413       94.45207      101.15555
C         19.15566       93.68037      100.09459
C         20.15682       92.87798       99.27390
O         21.18250       93.41805       98.89145
C         18.43009       94.63160       99.11342
C         17.29834       95.39930       99.79249
O         19.32787       95.55228       98.54314
H         20.58824       95.04618      100.88975
H         18.37593       92.99821      100.50245
H         17.94851       94.01578       98.31364
H         19.66215       95.15248       97.69732
H         16.77629       96.02825       99.04085
H         16.56284       94.69060      100.23003
H         17.69412       96.05717      100.59388
N         19.83310       91.63377       98.82076
C         20.57079       90.95246       97.75177
C         20.45979       91.76374       96.46006
O         19.36116       92.11424       96.05146
C         20.04746       89.48840       97.57794
C         20.55078       88.65107       98.78742
C         20.52427       88.85384       96.25199
C         19.98700       87.23310       98.86384
H         18.96335       91.20028       99.16795
H         21.64674       90.87058       98.01227
H         18.93515       89.50364       97.54890
H         20.27545       89.15997       99.73523
H         21.66243       88.58701       98.74740
H         20.13517       89.42426       95.38277
H         21.63161       88.82887       96.20033
H         20.13057       87.82596       96.12802
H         18.88302       87.26904       98.96786
H         20.26046       86.62712       97.97775
H         20.41233       86.72477       99.75567
N         21.58584       92.02385       95.73515
C         21.62924       92.74017       94.45881
C         21.90328       91.74734       93.36127
O         21.98097       90.56529       93.65216
C         22.78963       93.75355       94.46528
C         22.72574       94.68378       95.61250
O         22.70598       94.13460       96.83217
O         22.84810       95.88852       95.45933
H         22.47614       91.63250       96.07611
H         20.66566       93.25446       94.25063
H         22.85811       94.32453       93.51544
H         23.74077       93.18867       94.59716
N         22.05800       92.13017       92.06693
C         22.34478       91.15810       91.02679
C         23.72369       90.50527       91.20677
O         23.75432       89.28363       91.19911
C         22.13449       91.74107       89.61697
C         22.24999       90.65504       88.57295
C         21.37899       89.54666       88.59421
C         23.23415       90.73164       87.57573
C         21.50325       88.53174       87.64493
C         23.35022       89.71503       86.62302
C         22.48836       88.61502       86.65973
H         21.93432       93.12318       91.81286
H         21.57283       90.36371       91.12244
H         22.84687       92.55939       89.41120
H         21.11273       92.17518       89.55389
H         20.60483       89.45863       89.34587
H         23.91368       91.57378       87.53859
H         20.83502       87.68050       87.67597
H         24.11165       89.77857       85.85778
H         22.58246       87.82694       85.92494
N         24.90009       91.20276       91.39812
C         26.21238       90.56420       91.56631
C         26.33769       89.60182       92.74270
O         27.39374       89.00411       92.90271
C         27.16052       91.74005       91.84073
C         26.50070       92.86906       91.09235
C         25.02943       92.64432       91.42829
H         26.45035       90.04959       90.60888
H         27.09794       92.02017       92.91984
H         28.22671       91.54459       91.59498
H         26.88207       93.88163       91.34439
H         26.64860       92.68308       90.00474
H         24.78999       92.99687       92.45346
H         24.42500       93.18414       90.68212
N         25.31996       89.43726       93.62706
C         25.36797       88.61678       94.82289
C         24.47864       87.40480       94.60518
O         24.93841       86.28796       94.79347
C         24.91391       89.48048       96.02168
C         25.81098       90.72923       96.18320
C         25.35230       91.67776       97.25480
O         24.36932       91.44166       97.93712
O         26.02216       92.83025       97.43741
H         24.45220       89.96314       93.49107
H         26.40008       88.25385       95.02985
H         24.93253       88.87925       96.95655
H         23.87041       89.81331       95.84299
H         25.81359       91.31118       95.23760
H         26.85280       90.41275       96.40342
N         23.21258       87.54904       94.12639
C         22.35347       86.43569       93.80038
H         21.40440       86.81605       93.36095
H         22.84646       85.78698       93.04515
H         22.11984       85.85461       94.71411
H         22.85157       88.48287       93.93533
Ca        23.93617       94.92431       98.44426
O         23.58294       90.43667      100.52255
H         22.77304       90.64328       99.99571
H         23.24310       89.96039      101.31977
O         22.72402       93.50846      102.05319
H         22.69193       92.55644      101.79121
H         22.89244       93.48462      103.02858

Ca 1.0



