%chk=holoCaM-CaMKII.loop2.water0.frame192.chk
%nprocshared=20
%mem=10GB
%nosave
#b3lyp/svp scf=(tight,noincore,xqc) Test 
#IOP(5/87=12) Density=Current Pop=(MK,readradii) iop(6/33=2) iop(6/42=6)

holoCaM-CaMKII.loop2.water0.frame192 

   -2  1 
C         20.41296       72.51716       11.54624
C         19.31885       73.50984       11.29367
O         18.17012       73.10965       11.16791
H         21.39788       73.01989       11.65390
H         20.19713       71.96950       12.48758
H         20.46983       71.79890       10.70365
N         19.60089       74.83883       11.23704
C         18.57294       75.85342       11.07260
C         17.91090       75.72958        9.70167
O         18.62447       75.71772        8.70796
C         19.18914       77.25450       11.29159
C         18.13629       78.29660       11.50761
O         18.45249       79.45062       11.73524
O         16.84098       77.95063       11.47406
H         20.57915       75.14061       11.37020
H         17.83068       75.70013       11.88417
H         19.85123       77.53045       10.44164
H         19.79539       77.24135       12.22317
N         16.55100       75.64787        9.57420
C         15.87242       75.44269        8.29769
C         15.23612       76.72586        7.79723
O         15.63433       77.17950        6.73210
C         14.84133       74.31759        8.42848
H         15.96859       75.74090       10.41615
H         16.60867       75.12318        7.52598
H         14.34135       74.13762        7.45272
H         15.34209       73.37943        8.74851
H         14.06669       74.57525        9.18246
N         14.25263       77.38002        8.48805
C         13.67511       78.63653        7.99533
C         14.70989       79.76741        7.94282
O         14.40741       80.80031        7.36215
C         12.39426       79.02885        8.78052
C         12.64813       79.21854       10.24397
O         12.19551       78.42715       11.05583
O         13.46700       80.19314       10.65651
H         13.90079       76.96479        9.36319
H         13.33949       78.45523        6.94932
H         11.65817       78.20543        8.65264
H         11.94439       79.95489        8.36182
N         15.96069       79.63095        8.47991
C         17.02443       80.60418        8.30633
C         16.71228       81.94489        8.91871
O         16.72203       82.93534        8.20189
H         16.21092       78.77716        8.99549
H         17.23745       80.71619        7.22030
H         17.94986       80.21738        8.78846
N         16.47234       82.05369       10.25481
C         16.27350       83.32591       10.94210
C         17.36865       83.57354       11.98566
O         17.30690       84.58823       12.66506
C         14.84192       83.41082       11.53029
C         14.51686       82.48975       12.68149
N         13.28259       82.51349       13.23445
O         15.35626       81.73206       13.13218
H         16.46973       81.19426       10.81498
H         16.33857       84.16231       10.21261
H         14.11906       83.21610       10.70712
H         14.67432       84.44903       11.88840
H         12.55635       83.14912       12.87355
H         13.05275       81.89623       14.02786
N         18.42090       82.71155       12.14290
C         19.55024       82.95519       13.02789
C         19.42493       82.30585       14.39437
O         20.38287       82.39236       15.14937
H         18.51134       81.90255       11.51727
H         19.74527       84.04459       13.12692
H         20.45189       82.51950       12.54392
N         18.29392       81.65954       14.79909
C         18.13949       81.02535       16.10971
C         17.72830       79.56400       15.95856
O         17.58118       79.08964       14.83924
C         17.11653       81.82027       16.96410
C         17.63378       83.22869       17.30265
O         15.85351       81.86783       16.34514
H         17.48939       81.63225       14.16485
H         19.10225       81.02812       16.66657
H         16.98693       81.32054       17.94582
H         15.87298       82.58163       15.65584
H         18.60096       83.15537       17.84628
H         17.78775       83.83355       16.38472
H         16.90584       83.75096       17.95861
N         17.51998       78.79032       17.06554
C         17.12689       77.38635       17.02051
C         15.72132       77.26245       17.58591
O         15.48750       77.70265       18.70392
C         18.11145       76.49904       17.84719
C         19.58510       76.72991       17.43163
C         17.73143       75.00980       17.69657
C         20.58176       75.94492       18.29366
H         17.63241       79.21389       17.99854
H         17.13851       77.01304       15.97341
H         18.01819       76.78366       18.91942
H         19.82879       77.80546       17.56330
H         19.73343       76.46564       16.36232
H         16.69044       74.83773       18.01436
H         17.84359       74.68226       16.64058
H         18.34862       74.35713       18.34259
H         21.61835       76.21417       18.00509
H         20.43791       76.18852       19.36856
H         20.47555       74.85061       18.15062
N         14.75187       76.60914       16.88779
C         13.41522       76.35295       17.41269
C         13.35812       74.93175       17.95496
O         14.35690       74.23099       17.89411
C         12.36314       76.56692       16.29986
C         12.37574       77.96351       15.73906
O         13.36483       78.39445       15.16738
O         11.27589       78.73509       15.83274
H         15.00096       76.17767       15.98852
H         13.18876       77.03366       18.26258
H         11.35000       76.36954       16.70923
H         12.54377       75.85052       15.46771
N         12.22694       74.43574       18.52964
C         12.14735       73.07156       19.04311
C         12.42746       72.02680       17.96056
O         13.26319       71.17515       18.22477
C         10.79146       72.79155       19.72425
C         10.71540       71.34471       20.16982
C          9.77161       70.48322       19.58555
C         11.61143       70.83111       21.12729
C          9.73057       69.13306       19.94268
C         11.56529       69.47874       21.48213
C         10.62759       68.63024       20.88805
H         11.39972       75.04666       18.60827
H         12.92119       72.95643       19.83671
H          9.97284       73.01210       19.01240
H         10.65656       73.46492       20.59854
H          9.07978       70.85178       18.83879
H         12.35310       71.47019       21.58961
H          9.00803       68.47488       19.47845
H         12.26209       69.08568       22.21159
H         10.59805       67.58227       21.15694
N         11.78794       71.97271       16.74758
C         12.04028       70.92335       15.76838
C         13.38895       71.05683       15.06976
O         13.70478       70.18090       14.27639
C         10.87557       71.06848       14.78817
C         10.66439       72.56645       14.78939
C         10.77273       72.89274       16.27702
H         11.98383       69.91704       16.24222
H         11.03020       70.59469       13.79511
H          9.96805       70.61868       15.25257
H         11.53397       73.02441       14.26328
H          9.73147       72.92432       14.30725
H         11.05462       73.95699       16.37179
H          9.82199       72.68161       16.80834
N         14.24856       72.08446       15.33131
C         15.58625       72.17798       14.75679
C         16.63114       71.73622       15.77278
O         17.77151       71.52657       15.38365
C         15.88349       73.62769       14.32867
C         14.86105       74.18879       13.32920
C         15.07400       75.65404       13.05679
O         14.31393       76.24167       12.30473
O         16.07211       76.33745       13.65055
H         13.97522       72.80655       16.00435
H         15.66825       71.49518       13.88253
H         16.90518       73.69760       13.89316
H         15.85818       74.24828       15.24769
H         13.83720       74.08433       13.74462
H         14.92520       73.61968       12.37704
N         16.32459       71.57965       17.09249
C         17.27594       71.11599       18.07332
H         18.15797       71.78718       18.10014
H         16.79950       71.11130       19.07859
H         17.58881       70.08001       17.82771
H         15.38972       71.80869       17.43702
Ca        15.17795       79.36941       11.78904

Ca 1.0



