%chk=holoCaM-CaMKII.loop3.water2.frame123.chk
%nprocshared=20
%mem=10GB
%nosave
#b3lyp/svp scf=(tight,noincore,xqc) Test 
#IOP(5/87=12) Density=Current Pop=(MK,readradii) iop(6/33=2) iop(6/42=6)

holoCaM-CaMKII.loop3.water2.frame123 

   0  1 
C         23.80691       44.89940       79.59206
C         23.58742       43.71224       80.47454
O         23.33673       42.62940       79.96381
H         24.83474       45.28753       79.75179
H         23.69226       44.61850       78.52334
H         23.06976       45.69034       79.84054
N         23.67287       43.84791       81.82721
C         23.51589       42.73530       82.74565
C         22.29350       42.97497       83.61801
O         22.41085       43.54009       84.69700
C         24.82418       42.55086       83.54677
C         24.82255       41.27378       84.32921
O         25.79207       40.95962       84.99546
O         23.73365       40.49138       84.30963
H         23.87299       44.77943       82.22383
H         23.35180       41.79216       82.17914
H         24.99701       43.41665       84.22163
H         25.67396       42.49761       82.83838
N         21.06186       42.61667       83.15570
C         19.81937       42.89055       83.87408
C         19.76261       42.11291       85.18458
O         19.68006       42.73109       86.23691
C         18.58140       42.54606       83.00348
C         18.50996       43.27209       81.64125
C         18.42579       44.80239       81.75945
C         18.22465       45.49691       80.39888
N         19.36226       45.31094       79.49442
H         21.01599       42.16183       82.23248
H         19.77522       43.97813       84.10116
H         17.66022       42.78561       83.57917
H         18.57086       41.45668       82.78771
H         17.59610       42.91091       81.12097
H         19.37970       42.98702       81.01845
H         19.34276       45.20849       82.23559
H         17.55353       45.05585       82.40024
H         18.09411       46.58594       80.58496
H         17.29532       45.12148       79.91551
H         19.46465       44.30813       79.22194
H         19.19473       45.86469       78.62329
H         20.24231       45.65207       79.94485
N         19.79356       40.74604       85.18750
C         19.71822       39.92706       86.40517
C         20.87218       40.17197       87.39251
O         20.76845       39.69950       88.51635
C         19.56232       38.40741       86.08729
C         20.67439       37.86220       85.23226
O         20.76372       38.19768       84.06251
O         21.71617       37.22724       85.78711
H         19.82613       40.28634       84.27174
H         18.78970       40.23016       86.93964
H         18.60061       38.21892       85.56278
H         19.52403       37.84984       87.04833
N         21.95346       40.94880       87.08836
C         22.91566       41.40986       88.08235
C         23.84418       40.38044       88.70201
O         24.60977       40.78836       89.56479
H         22.04567       41.34070       86.14381
H         22.35278       41.91564       88.89748
H         23.56849       42.17595       87.60942
N         23.87822       39.06320       88.34279
C         24.78411       38.10671       88.98665
C         26.27388       38.43758       88.82243
O         27.07103       37.78009       89.47766
C         24.48415       36.64799       88.54289
C         24.87536       36.28135       87.12674
N         24.60011       35.04592       86.64965
O         25.45591       37.07872       86.41070
H         23.20720       38.72080       87.64957
H         24.55389       38.15459       90.07445
H         23.39547       36.46410       88.67348
H         25.02721       35.95019       89.21616
H         24.11574       34.35084       87.23540
H         24.87049       34.78329       85.68993
N         26.72979       39.42035       87.98324
C         28.13717       39.79041       87.86830
C         28.72749       39.54618       86.48981
O         29.90589       39.81883       86.31790
H         26.06183       39.94820       87.40593
H         28.75879       39.21906       88.59027
H         28.23993       40.86742       88.11994
N         27.99577       39.01059       85.46946
C         28.56341       38.68562       84.15883
C         27.47663       38.42626       83.11371
O         26.30698       38.34300       83.45778
C         29.54746       37.48393       84.25008
C         28.97067       36.26889       84.96114
C         28.81887       36.26827       86.36228
C         28.60846       35.11381       84.24762
C         28.30068       35.16024       87.02988
C         28.08336       34.00067       84.92010
C         27.92615       34.02163       86.31106
O         27.42194       32.94476       86.94704
H         27.00171       38.82793       85.63194
H         29.09728       39.58592       83.78193
H         30.47574       37.77380       84.78617
H         29.86261       37.21680       83.21822
H         29.11591       37.11274       86.95783
H         28.72063       35.07607       83.17178
H         28.19609       35.18963       88.10797
H         27.79856       33.11940       84.36029
H         27.30285       32.92622       87.90820
N         27.80442       38.38123       81.78264
C         26.79723       38.26269       80.72505
C         27.05736       37.08105       79.80573
O         28.11523       36.47133       79.85686
C         26.68875       39.58648       79.90005
C         28.00107       39.92802       79.14162
C         26.24923       40.73366       80.82059
C         27.88243       41.15354       78.23001
H         28.79052       38.50306       81.51114
H         25.80333       38.07653       81.18328
H         25.88652       39.45322       79.14311
H         28.27481       39.07016       78.49120
H         28.83222       40.10284       79.85671
H         26.04484       41.66016       80.24814
H         25.30597       40.46011       81.33644
H         27.02974       40.94683       81.58111
H         27.06712       41.00917       77.48940
H         27.69333       42.07791       78.81236
H         28.83720       41.29853       77.68150
N         26.07781       36.71137       78.93243
C         26.18284       35.64154       77.94844
C         25.82871       36.18311       76.56398
O         25.59824       37.37474       76.43028
C         25.24326       34.49780       78.36773
O         23.90939       34.92692       78.43702
H         25.17819       37.20841       78.98213
H         27.21375       35.22619       77.91700
H         25.54605       34.13060       79.37193
H         25.34204       33.62144       77.68750
H         23.50593       34.75563       77.54699
N         25.74939       35.35592       75.48284
C         25.37720       35.81990       74.14586
C         23.99535       36.45600       74.13308
O         23.86772       37.58610       73.68245
C         25.40266       34.65124       73.15303
H         25.95543       34.35493       75.61624
H         26.12565       36.56595       73.79600
H         26.41900       34.20530       73.11860
H         24.67763       33.86219       73.44658
H         25.14490       35.01112       72.13339
N         22.91567       35.78176       74.61999
C         21.55143       36.30618       74.60654
C         21.45010       37.65552       75.28987
O         20.88969       38.57006       74.70163
C         20.59922       35.31790       75.29063
H         23.07618       34.84582       75.02386
H         21.21089       36.41592       73.55210
H         20.88534       35.16413       76.35331
H         19.55677       35.70236       75.25275
H         20.62644       34.33881       74.76678
N         21.98692       37.85575       76.52580
C         21.89476       39.12784       77.24105
C         22.45292       40.26018       76.39603
O         21.72269       41.20045       76.11319
C         22.64068       39.06426       78.59210
C         22.03277       38.03538       79.56067
C         22.79538       37.99729       80.85310
O         23.32303       36.96068       81.22225
O         22.88969       39.10049       81.61872
H         22.49461       37.06997       76.95670
H         20.82339       39.34667       77.45170
H         22.59304       40.06512       79.07489
H         23.70544       38.82218       78.40598
H         22.04690       37.02036       79.11270
H         20.97718       38.30485       79.77586
N         23.73148       40.22683       75.93472
C         24.27724       41.27263       75.09834
H         25.32535       41.02835       74.82326
H         23.67920       41.36183       74.16586
H         24.26502       42.24034       75.64247
H         24.33271       39.42793       76.16792
Ca        23.45518       38.52170       85.28536
O         21.95987       35.04888       83.54893
H         22.00306       34.72204       84.48271
H         21.03330       35.38254       83.44528
O         25.19303       35.42037       82.90451
H         25.58913       34.90943       82.15489
H         25.96932       35.70855       83.44541

Ca 1.0



