%chk=holoCaM-CaMKII.loop1.water1.frame22.chk
%nprocshared=20
%mem=10GB
%nosave
#b3lyp/svp scf=(tight,noincore,xqc) Test 
#IOP(5/87=12) Density=Current Pop=(MK,readradii) iop(6/33=2) iop(6/42=6)

holoCaM-CaMKII.loop1.water1.frame22 

   0  1 
C         31.02162       41.62757       13.99799
C         31.48698       40.34887       13.36381
O         31.08173       40.05337       12.24941
H         29.91878       41.61315       14.10982
H         31.47825       41.77284       15.00032
H         31.31801       42.48674       13.36452
N         32.36121       39.54370       14.02386
C         32.91545       38.31767       13.46315
C         31.80838       37.29460       13.19349
O         31.23314       36.77851       14.14166
C         33.96012       37.77692       14.47203
C         34.71971       36.55943       14.06796
O         35.56910       36.00828       14.95155
O         34.58644       36.06312       12.96675
H         32.67784       39.84660       14.95878
H         33.43382       38.58111       12.51280
H         33.43858       37.54520       15.42551
H         34.71398       38.56998       14.67353
N         31.44477       36.97674       11.91293
C         30.36221       36.04561       11.58486
C         30.84565       34.60436       11.44538
O         30.00593       33.73531       11.25694
C         29.62200       36.48545       10.28800
C         30.43138       36.25166        8.99123
C         29.77571       36.83372        7.72670
C         28.37685       36.28896        7.38535
N         28.38084       34.84828        7.12707
H         31.87875       37.50907       11.15404
H         29.60871       36.09757       12.40202
H         29.35230       37.55959       10.38412
H         28.67966       35.90220       10.20484
H         30.60670       35.16625        8.84850
H         31.41760       36.73350        9.07888
H         30.45147       36.63698        6.86472
H         29.69922       37.93558        7.84806
H         28.02413       36.81404        6.46957
H         27.65950       36.52528        8.19963
H         28.63350       34.31924        7.99156
H         27.42040       34.55682        6.83288
H         29.05065       34.61984        6.35697
N         32.17371       34.27943       11.47278
C         32.68125       32.93026       11.22529
C         33.41777       32.35128       12.42603
O         33.85077       31.20961       12.33698
C         33.66219       32.96989       10.03226
C         33.04866       33.54110        8.78652
O         33.56498       34.65497        8.23140
O         32.09385       32.99219        8.26180
H         32.86755       35.02111       11.62018
H         31.84506       32.23822       10.98587
H         34.03263       31.94695        9.80520
H         34.53755       33.59201       10.31384
N         33.63844       33.07018       13.56373
C         34.42353       32.57223       14.68081
C         35.82571       32.20357       14.24254
O         36.24452       31.08243       14.49137
H         33.26888       34.02576       13.64890
H         33.91875       31.69357       15.13938
H         34.49089       33.37010       15.45160
N         36.58734       33.09541       13.54433
C         37.93616       32.80172       13.05010
C         38.99398       33.78550       13.53459
O         40.16816       33.46586       13.39724
C         37.94644       32.66179       11.50865
C         37.39267       33.82417       10.71310
O         36.90574       34.92602       11.31325
O         37.29299       33.71658        9.50181
H         36.15557       33.99832       13.32312
H         38.25691       31.81528       13.45252
H         37.31051       31.78406       11.26001
H         38.97932       32.43679       11.16483
N         38.68340       34.98166       14.10884
C         39.66860       35.87614       14.68874
C         39.80212       37.19522       13.95933
O         40.50552       38.04564       14.47997
H         37.70647       35.28187       14.16692
H         40.68019       35.41651       14.72554
H         39.35993       36.07303       15.73854
N         39.22479       37.42940       12.73843
C         39.41754       38.69030       12.01514
C         38.09874       39.33436       11.62907
O         37.05767       38.70074       11.69137
C         40.28448       38.47450       10.75109
C         41.71994       38.05512       11.09823
O         39.68627       37.55222        9.87266
H         38.68119       36.68474       12.28409
H         39.94152       39.42259       12.66565
H         40.37335       39.44207       10.21032
H         39.82326       36.63923       10.23916
H         42.31392       37.94839       10.16587
H         42.19795       38.83323       11.73109
H         41.73526       37.08877       11.64457
N         38.09940       40.65262       11.25729
C         36.90842       41.39385       10.86061
C         37.21528       42.11746        9.54763
O         38.05048       43.00866        9.53263
C         36.51049       42.38883       11.99427
C         36.20007       41.60893       13.30422
C         35.30100       43.25040       11.58010
C         35.99605       42.50513       14.52636
H         38.98788       41.17158       11.30392
H         36.05524       40.69594       10.71452
H         37.37681       43.06259       12.17709
H         37.05463       40.94875       13.55847
H         35.30209       40.96692       13.16044
H         34.40897       42.61307       11.41442
H         35.06017       44.00473       12.35460
H         35.51536       43.81750       10.65231
H         35.82081       41.86933       15.42030
H         36.90730       43.11551       14.70350
H         35.11924       43.17150       14.41154
N         36.58341       41.75353        8.39791
C         36.78790       42.38456        7.09899
C         35.99367       43.68051        7.02186
O         35.28181       44.00686        7.96185
C         36.36521       41.40951        5.95914
C         37.21553       40.13150        5.96661
O         35.01115       41.06562        6.09268
H         35.93632       40.97559        8.43906
H         37.86950       42.60376        6.96113
H         36.52527       41.91719        4.98114
H         34.71462       40.69182        5.22184
H         37.08886       39.56924        6.91495
H         36.90674       39.46882        5.13002
H         38.28885       40.38247        5.83745
N         36.06365       44.47666        5.91462
C         35.30870       45.72686        5.79349
C         33.79429       45.47492        5.65804
O         33.03235       46.42958        5.67855
C         35.85831       46.55857        4.60139
C         35.34872       48.00676        4.59184
O         37.26098       46.60643        4.69030
H         36.70660       44.20130        5.15685
H         35.50610       46.31354        6.71911
H         35.55827       46.04262        3.65735
H         37.61113       46.64102        3.76137
H         35.64388       48.51754        5.53473
H         35.80605       48.55538        3.74207
H         34.25212       48.07290        4.47134
N         33.28525       44.21241        5.54669
C         31.86352       43.89437        5.44861
C         31.40099       43.36808        6.79201
O         30.42065       43.87999        7.31660
C         31.62124       42.88859        4.30878
C         32.06833       43.46601        2.95426
C         31.85487       42.45883        1.81577
C         32.40996       42.95245        0.46663
N         31.71133       44.13699       -0.03580
H         33.92529       43.41086        5.55522
H         31.26050       44.80437        5.22576
H         30.53618       42.64643        4.26104
H         32.18156       41.95046        4.51646
H         33.15056       43.71462        3.00348
H         31.49519       44.39622        2.75393
H         30.77400       42.21805        1.71487
H         32.39763       41.52297        2.07248
H         32.29623       42.13141       -0.27532
H         33.49653       43.17172        0.56609
H         30.69079       43.93512       -0.14165
H         31.85256       44.95294        0.60035
H         32.10325       44.38629       -0.97283
N         32.15125       42.45498        7.48022
C         31.90133       42.11201        8.87889
C         31.98705       43.35586        9.77905
O         31.62606       43.24632       10.94134
C         32.92719       41.05441        9.38279
C         32.83407       39.69451        8.65342
C         33.92288       38.72583        9.07397
O         35.09250       38.97685        8.87388
O         33.62881       37.54474        9.62760
H         32.97281       42.05015        7.01925
H         30.87273       41.69613        8.95948
H         32.77629       40.86790       10.46704
H         33.93771       41.48747        9.25622
H         32.92357       39.83549        7.55802
H         31.83726       39.25216        8.86663
N         32.44026       44.56720        9.32917
C         32.45504       45.75337       10.15675
H         31.42050       46.00464       10.47409
H         33.09719       45.59525       11.04693
H         32.85634       46.61268        9.57475
H         32.79073       44.68185        8.37107
Ca        35.28364       36.15638       10.31002
O         37.18689       36.92162        8.02469
H         37.92574       36.30524        8.25628
H         37.04249       36.78267        7.05534

Ca 1.0



