%chk=holoCaM.loop3.water2.frame102.chk
%nprocshared=20
%mem=10GB
%nosave
#b3lyp/svp scf=(tight,noincore,xqc) Test 
#IOP(5/87=12) Density=Current Pop=(MK,readradii) iop(6/33=2) iop(6/42=6)

holoCaM.loop3.water2.frame102 

   0  1 
C         95.67289        6.00511       24.76995
C         95.35386        4.74908       24.01377
O         96.02445        3.74768       24.21852
H         96.72126        6.30397       24.56565
H         95.00237        6.84027       24.47417
H         95.54646        5.82456       25.85824
N         94.31270        4.71902       23.13916
C         93.92609        3.51510       22.41487
C         94.84517        3.34208       21.22199
O         94.81784        4.17064       20.32126
C         92.44662        3.65117       22.04024
C         91.75725        2.51410       21.36072
O         92.29411        1.31898       21.06915
O         90.59752        2.69182       21.07893
H         93.73817        5.57145       23.03500
H         94.00745        2.65013       23.09884
H         92.32908        4.53977       21.38095
H         91.87628        3.84554       22.97503
N         95.75500        2.32702       21.19760
C         96.77086        2.20987       20.15393
C         96.21974        1.62605       18.85997
O         96.93497        1.65247       17.86761
C         97.96316        1.35890       20.65051
C         98.63825        1.90269       21.93034
C         99.27427        3.28926       21.74191
C         99.97007        3.75746       23.02725
N        100.59561        5.06583       22.83514
H         95.79428        1.69279       22.00871
H         97.15164        3.22729       19.92185
H         98.73345        1.28999       19.85120
H         97.59800        0.32969       20.86272
H         99.43735        1.18595       22.21954
H         97.90847        1.94192       22.76628
H         98.49763        4.03765       21.48086
H        100.01983        3.23761       20.91885
H        100.74980        3.01990       23.32036
H         99.22301        3.82536       23.84988
H         99.87332        5.77745       22.57819
H        101.05781        5.35935       23.72588
H        101.31923        5.01015       22.08179
N         94.97776        1.06392       18.79456
C         94.39368        0.52234       17.57058
C         93.09170        1.23385       17.20138
O         92.51116        0.88011       16.18401
C         94.22173       -1.01208       17.67162
C         93.35831       -1.48796       18.80490
O         93.75222       -1.31122       20.07760
O         92.33452       -2.10969       18.57527
H         94.41515        1.00776       19.65150
H         95.08031        0.68441       16.71044
H         95.22179       -1.48262       17.79127
H         93.79774       -1.38017       16.71122
N         92.59981        2.28238       17.93027
C         91.43780        3.06007       17.52568
C         90.10509        2.33438       17.58469
O         89.12165        2.94262       17.18638
H         93.10830        2.61885       18.75796
H         91.60868        3.42803       16.49033
H         91.35285        3.94992       18.18706
N         89.96641        1.06088       18.05919
C         88.68033        0.35219       18.04977
C         87.60936        0.95927       18.96897
O         86.48065        0.49058       18.93773
C         88.88943       -1.14708       18.37017
C         89.29117       -1.44031       19.80125
N         88.55935       -2.29435       20.55419
O         90.29308       -0.92973       20.27816
H         90.80709        0.56046       18.37649
H         88.30132        0.39856       17.00485
H         89.67379       -1.54275       17.68937
H         87.94988       -1.69304       18.13759
H         87.72161       -2.75631       20.17218
H         88.84323       -2.51414       21.51888
N         87.89812        1.97439       19.82849
C         86.96053        2.60554       20.74062
C         87.24642        2.29447       22.20432
O         86.58461        2.88992       23.04268
H         88.84128        2.33952       19.83915
H         85.91572        2.28957       20.53578
H         87.01523        3.70388       20.57306
N         88.11944        1.31109       22.59299
C         88.24299        0.85978       23.98191
C         89.68493        0.69705       24.43727
O         90.50230        0.22274       23.66086
C         87.60395       -0.53632       24.14189
C         86.11346       -0.55845       23.91957
C         85.56242       -0.44646       22.63130
C         85.25584       -0.72079       25.01993
C         84.17587       -0.49162       22.45251
C         83.87337       -0.75832       24.84043
C         83.32742       -0.64564       23.55506
O         81.99309       -0.68835       23.36986
H         88.61763        0.76946       21.87248
H         87.70845        1.53512       24.68689
H         87.80263       -0.86379       25.18766
H         88.08449       -1.28174       23.47485
H         86.20117       -0.34034       21.76400
H         85.65699       -0.81122       26.02199
H         83.76085       -0.41142       21.45573
H         83.22986       -0.87785       25.70259
H         81.37715       -0.79743       24.10878
N         89.99785        0.86042       25.76313
C         91.24927        0.39093       26.36164
C         90.94786       -0.62221       27.46660
O         90.28646       -0.28242       28.43718
C         92.15253        1.55425       26.88084
C         91.51800        2.41650       28.00750
C         92.58592        2.41852       25.68856
C         92.48351        3.44588       28.59959
H         89.28315        1.25117       26.39612
H         91.85781       -0.13652       25.59395
H         93.07151        1.07889       27.29476
H         91.23599        1.77711       28.86285
H         90.60702        2.93224       27.63674
H         93.34771        3.16798       25.98037
H         93.05206        1.77051       24.92003
H         91.71260        2.94009       25.24469
H         92.78125        4.20896       27.85454
H         91.98859        3.97275       29.44259
H         93.38972        2.93639       28.99082
N         91.40734       -1.90337       27.38526
C         91.25391       -2.86722       28.47719
C         92.16230       -2.49237       29.64732
O         92.87426       -1.50636       29.55512
C         91.58772       -4.28426       27.97515
O         92.91946       -4.35267       27.54525
H         91.90308       -2.19620       26.53114
H         90.19145       -2.88574       28.80743
H         90.89023       -4.52230       27.13785
H         91.42658       -5.03638       28.77617
H         92.95199       -5.02341       26.81480
N         92.20761       -3.25233       30.77803
C         93.13679       -2.99362       31.87884
C         94.57928       -3.14990       31.42428
O         95.37719       -2.25221       31.65406
C         92.87753       -3.96373       33.03581
H         91.56906       -4.05850       30.85190
H         92.97383       -1.96623       32.27673
H         93.57598       -3.74762       33.87386
H         91.83935       -3.83697       33.40835
H         93.01954       -5.01738       32.71480
N         94.97087       -4.27302       30.75485
C         96.33505       -4.52539       30.29163
C         96.85942       -3.37723       29.46379
O         97.93563       -2.87051       29.74909
C         96.36976       -5.80625       29.44482
H         94.24725       -4.97711       30.54111
H         97.00610       -4.66883       31.16660
H         95.70798       -5.71020       28.55544
H         97.40401       -6.00862       29.09217
H         96.02601       -6.67287       30.04656
N         96.12117       -2.89982       28.43211
C         96.54050       -1.79322       27.58800
C         96.82111       -0.55384       28.42117
O         97.90930       -0.00610       28.31398
C         95.46765       -1.50697       26.53400
C         95.27344       -2.69578       25.56837
C         94.35417       -2.24970       24.49110
O         93.28019       -2.79586       24.29110
O         94.73237       -1.16562       23.79494
H         95.20285       -3.33484       28.26575
H         97.47314       -2.06700       27.04469
H         95.80686       -0.62139       25.95128
H         94.49646       -1.25100       27.01651
H         94.87783       -3.59400       26.08290
H         96.24157       -2.96648       25.09614
N         95.90018       -0.08927       29.30786
C         96.12002        1.04174       30.18504
H         97.10282        1.52740       30.01339
H         95.31965        1.79268       30.02877
H         96.08106        0.69441       31.23965
H         95.01050       -0.58643       29.39991
Ca        93.51820        0.10535       22.45854
O         90.36418       -2.72620       23.74985
H         89.52590       -3.23403       23.88461
H         90.51684       -2.27274       24.61496
O         92.19250       -3.63860       21.46643
H         91.43935       -4.24938       21.66606
H         92.73637       -4.12597       20.79804

Ca 1.0



