%chk=holoCaM.loop2.water2.frame261.chk
%nprocshared=20
%mem=10GB
%nosave
#b3lyp/svp scf=(tight,noincore,xqc) Test 
#IOP(5/87=12) Density=Current Pop=(MK,readradii) iop(6/33=2) iop(6/42=6)

holoCaM.loop2.water2.frame261 

   -2  1 
C         44.69546        6.44302       47.67249
C         43.63674        6.18695       46.63310
O         42.50514        5.89804       46.99132
H         45.66654        6.71841       47.20584
H         44.38132        7.28680       48.32319
H         44.85078        5.53836       48.29440
N         43.93843        6.30641       45.31264
C         42.96401        6.17755       44.23306
C         42.39272        4.76424       44.13108
O         43.17377        3.82502       44.06340
C         43.65206        6.53769       42.89853
C         42.67940        6.70552       41.77134
O         41.35509        6.67034       42.00061
O         43.09034        6.93482       40.64612
H         44.90806        6.56172       45.06629
H         42.15668        6.92076       44.40989
H         44.39654        5.75097       42.64567
H         44.18751        7.50621       42.99839
N         41.04181        4.54778       44.05163
C         40.44453        3.21866       43.91774
C         39.65891        3.00183       42.61070
O         39.28889        1.86044       42.37251
C         39.53830        2.95848       45.12804
H         40.41391        5.35776       44.08992
H         41.24688        2.44993       43.92656
H         39.10842        1.93494       45.09020
H         40.12173        3.05518       46.06932
H         38.70555        3.69514       45.15523
N         39.32908        4.00874       41.73988
C         38.53450        3.79446       40.51423
C         39.06061        4.54976       39.27439
O         38.43518        4.42455       38.23025
C         37.04103        4.11777       40.77669
C         36.87119        5.44461       41.43204
O         37.43859        6.53369       40.90323
O         36.38497        5.50846       42.55064
H         39.54622        4.97572       42.00722
H         38.54800        2.71933       40.23037
H         36.62870        3.34800       41.46690
H         36.45545        4.06628       39.83454
N         40.20674        5.29404       39.27391
C         40.77150        5.91004       38.07013
C         40.04473        7.13271       37.50912
O         40.48011        7.62273       36.47675
H         40.77223        5.33216       40.12597
H         40.84370        5.13131       37.27973
H         41.80633        6.24439       38.29613
N         38.95499        7.68819       38.10863
C         38.20653        8.83314       37.56861
C         38.91938       10.20008       37.65154
O         38.28803       11.19249       37.31333
C         36.80401        8.89655       38.22723
C         36.77069        9.15999       39.71045
N         35.58183        9.18930       40.35209
O         37.79984        9.32951       40.34268
H         38.59654        7.22873       38.95001
H         37.98969        8.63295       36.49571
H         36.29950        7.92166       38.04788
H         36.19944        9.68256       37.72488
H         34.70200        9.03420       39.83926
H         35.53938        9.35766       41.36444
N         40.22027       10.34434       38.04229
C         40.91841       11.62799       38.09580
C         40.56231       12.51868       39.28236
O         41.16325       13.57754       39.39504
H         40.78326        9.50900       38.22824
H         40.77024       12.17528       37.13838
H         42.00638       11.42290       38.19231
N         39.62162       12.17114       40.20533
C         39.26533       12.97809       41.37252
C         39.33963       12.15121       42.64541
O         38.71362       11.10640       42.70733
C         37.81984       13.51992       41.23178
C         37.73025       14.62785       40.18418
O         36.92216       12.49207       40.88985
H         39.10593       11.29802       40.07115
H         39.93405       13.86034       41.48636
H         37.51255       14.00070       42.19289
H         36.58162       12.09911       41.73448
H         36.68820       15.01074       40.13732
H         38.39289       15.47328       40.47227
H         38.02638       14.25654       39.18208
N         40.01568       12.60392       43.74088
C         39.89792       11.96739       45.05519
C         38.44282       12.05904       45.51792
O         37.88318       13.14673       45.53236
C         40.88986       12.60408       46.08522
C         42.34533       12.24964       45.66070
C         40.61395       12.09561       47.51656
C         43.44163       12.77799       46.58732
H         40.56023       13.47614       43.65947
H         40.17893       10.89841       44.97906
H         40.75036       13.70779       46.09727
H         42.54126       12.65152       44.64462
H         42.45723       11.14441       45.62092
H         39.58016       12.33885       47.83579
H         40.77010       11.00226       47.57884
H         41.27465       12.59323       48.25353
H         43.37125       12.32375       47.59715
H         44.43278       12.49046       46.17570
H         43.38944       13.88264       46.66584
N         37.79270       10.93928       45.95101
C         36.40839       10.90333       46.41482
C         36.36568       10.80139       47.93252
O         37.40881       10.83112       48.56949
C         35.67750        9.68468       45.79508
C         35.62321        9.71728       44.30099
O         36.75521        9.64262       43.58697
O         34.54776        9.75923       43.72518
H         38.32284       10.06192       46.00620
H         35.87105       11.83627       46.13515
H         34.63099        9.64748       46.15893
H         36.18173        8.74285       46.10666
N         35.17028       10.70321       48.58200
C         35.03121       10.58480       50.02861
C         35.71035        9.33714       50.60183
O         36.46883        9.51518       51.54210
C         33.54524       10.66794       50.43701
C         33.35421       10.59933       51.93668
C         34.00760       11.50766       52.79268
C         32.51543        9.61966       52.49445
C         33.83542       11.42354       54.17666
C         32.33632        9.54828       53.87917
C         32.99925       10.44602       54.71968
H         34.30611       10.73374       48.02003
H         35.52329       11.47422       50.47953
H         32.96728        9.86384       49.93560
H         33.14113       11.63990       50.07853
H         34.65859       12.27604       52.39749
H         31.99515        8.91412       51.85881
H         34.35096       12.11767       54.82800
H         31.68420        8.79489       54.30085
H         32.86422       10.38545       55.79159
N         35.53049        8.05703       50.13474
C         36.21803        6.90076       50.70671
C         37.71448        6.86866       50.39146
O         38.37146        5.93547       50.83368
C         35.46898        5.70976       50.10256
C         35.10850        6.23374       48.73146
C         34.65807        7.66027       49.04872
H         36.09570        6.86387       51.81199
H         36.01218        4.74015       50.13126
H         34.50943        5.58498       50.65489
H         36.05152        6.28222       48.14108
H         34.36905        5.63007       48.16447
H         34.77832        8.26399       48.13243
H         33.60764        7.69010       49.40841
N         38.32873        7.85561       49.67728
C         39.76220        7.91156       49.41150
C         40.41284        9.08839       50.13371
O         41.63085        9.19121       50.09732
C         39.99469        8.11386       47.90736
C         39.26980        7.09990       47.02189
C         39.34758        7.48900       45.57742
O         40.03239        8.42260       45.19502
O         38.59843        6.82719       44.69480
H         37.76312        8.61868       49.30028
H         40.25382        6.97679       49.75850
H         41.08206        8.12218       47.67324
H         39.57446        9.10918       47.65732
H         38.19123        7.10601       47.27947
H         39.66609        6.07262       47.16800
N         39.67334       10.03810       50.77650
C         40.26359       11.17451       51.44259
H         40.85968       11.77124       50.72139
H         39.45871       11.82255       51.85460
H         40.90566       10.82909       52.27801
H         38.65301        9.98797       50.78404
Ca        38.47122        7.53149       42.58269
O         41.97244        9.82532       43.18447
H         42.83361        9.73799       42.70532
H         42.12980        9.37669       44.05090
O         40.88076        9.18532       40.70018
H         40.69175        8.34605       40.21099
H         41.78523        9.45102       40.39526

Ca 1.0



