%chk=holoCaM.loop2.water2.frame177.chk
%nprocshared=20
%mem=10GB
%nosave
#b3lyp/svp scf=(tight,noincore,xqc) Test 
#IOP(5/87=12) Density=Current Pop=(MK,readradii) iop(6/33=2) iop(6/42=6)

holoCaM.loop2.water2.frame177 

   -2  1 
C         17.02436       65.20179      106.09264
C         17.40652       65.59894      107.49437
O         17.51762       66.78220      107.77381
H         16.03386       65.63864      105.84222
H         17.78004       65.56003      105.36579
H         16.93693       64.09737      105.99249
N         17.57437       64.64094      108.44252
C         17.80087       64.90673      109.85976
C         19.18327       65.48385      110.15132
O         20.16063       64.88091      109.72788
C         17.68391       63.56758      110.62018
C         17.61180       63.72852      112.10441
O         17.67270       62.63481      112.88376
O         17.43658       64.82527      112.60958
H         17.44466       63.65981      108.14871
H         16.99539       65.58219      110.22112
H         18.55228       62.92586      110.35501
H         16.76261       63.02543      110.32344
N         19.34524       66.58386      110.95302
C         20.66140       67.07009      111.37106
C         20.88960       67.01795      112.89181
O         22.01591       67.29302      113.28373
C         20.87413       68.49430      110.84355
H         18.51013       67.07676      111.29965
H         21.45784       66.43647      110.92354
H         20.77879       68.50605      109.73627
H         20.12304       69.19015      111.27420
H         21.89168       68.86150      111.10116
N         19.91190       66.71454      113.81053
C         20.15840       66.72609      115.26426
C         19.60682       65.50538      116.03395
O         19.77142       65.47700      117.24573
C         19.66261       68.06350      115.86761
C         18.18134       68.28370      115.83291
O         17.43735       67.42939      115.39924
O         17.66401       69.43256      116.30612
H         18.94907       66.57740      113.48295
H         21.25394       66.73051      115.45271
H         20.14958       68.89569      115.31442
H         19.98421       68.12727      116.92920
N         18.98868       64.45047      115.42262
C         18.54335       63.24298      116.12709
C         17.32838       63.38828      117.04196
O         16.98463       62.41265      117.69398
H         18.92247       64.44928      114.40276
H         19.39833       62.84608      116.71398
H         18.27067       62.46955      115.37904
N         16.62266       64.54630      117.14057
C         15.48332       64.76025      118.04752
C         14.21066       63.94577      117.73448
O         13.23590       64.10141      118.45803
C         15.13179       66.26339      118.03585
C         14.37710       66.67919      116.76250
N         14.30599       68.11771      116.62181
O         14.85960       66.03878      115.60334
H         16.96047       65.34188      116.58909
H         15.82886       64.51284      119.07560
H         16.06768       66.85224      118.16022
H         14.47222       66.50683      118.89793
H         14.02053       68.53729      117.53709
H         13.50292       68.27505      115.98355
N         14.12969       63.08399      116.68111
C         12.94106       62.30644      116.34919
C         11.85441       63.05681      115.58708
O         10.90301       62.39900      115.19003
H         14.96603       62.90755      116.11649
H         12.53317       61.81428      117.25874
H         13.26074       61.49722      115.65692
N         11.92029       64.39135      115.30315
C         10.94546       65.08447      114.45495
C         11.62357       65.74888      113.26599
O         12.83605       65.90174      113.24992
C         10.18085       66.17384      115.25761
C          9.21500       65.57280      116.27396
O         11.08114       67.01964      115.92666
H         12.69854       64.93918      115.67780
H         10.20930       64.36515      114.03533
H          9.53665       66.77842      114.57533
H         11.37001       67.70846      115.27391
H          8.44571       64.96900      115.74600
H          9.74870       64.93445      117.00657
H          8.69467       66.39129      116.81837
N         10.84909       66.24391      112.25870
C         11.33535       67.16141      111.24007
C         11.18583       68.56300      111.79503
O         10.09408       68.94719      112.19139
C         10.60356       66.93723      109.86879
C         11.27613       65.74464      109.13153
C         10.63511       68.19972      108.97761
C         10.63208       65.35543      107.79837
H          9.82727       66.12832      112.33853
H         12.41329       67.01518      111.05907
H          9.52873       66.72555      110.06099
H         11.26167       64.85015      109.78910
H         12.33882       66.00574      108.92121
H         10.06683       68.04992      108.03877
H         10.13234       69.05005      109.48387
H         11.67320       68.48753      108.73063
H          9.57865       65.04661      107.95348
H         10.67592       66.18165      107.05980
H         11.19552       64.50469      107.35832
N         12.26411       69.39865      111.79193
C         12.20943       70.79777      112.18189
C         12.11522       71.64161      110.94022
O         12.07033       71.09512      109.85068
C         13.46318       71.18955      112.97747
C         13.60287       70.38497      114.21790
O         14.61852       69.73706      114.39993
O         12.62828       70.40112      115.14821
H         13.13947       69.07096      111.36559
H         11.29832       70.99963      112.78745
H         13.40748       72.25294      113.28469
H         14.36835       71.05469      112.34250
N         12.01895       72.99282      111.02565
C         11.76693       73.80798      109.85344
C         12.88757       73.73489      108.80854
O         12.55416       73.41684      107.67562
C         11.39731       75.24936      110.25135
C         10.89079       76.00034      109.05016
C          9.72597       75.56760      108.38755
C         11.57927       77.12301      108.57068
C          9.26942       76.23911      107.25495
C         11.11625       77.79465      107.43622
C          9.96505       77.35116      106.77726
H         12.02843       73.43930      111.95506
H         10.85000       73.38557      109.38797
H         12.25512       75.76723      110.71401
H         10.58523       75.22928      111.01144
H          9.17070       74.70753      108.74202
H         12.47709       77.46980      109.06731
H          8.37780       75.89268      106.74850
H         11.65369       78.65623      107.06538
H          9.61075       77.86829      105.89661
N         14.21549       73.98564      109.06457
C         15.27441       73.87189      108.05863
C         15.22736       72.56671      107.28967
O         15.35861       72.56394      106.07431
C         16.56667       73.90537      108.88931
C         16.17991       74.81459      110.02503
C         14.77793       74.31108      110.36249
H         15.22548       74.74667      107.37247
H         16.75992       72.90890      109.35094
H         17.47189       74.20102      108.31603
H         16.88758       74.83139      110.88109
H         16.09504       75.84439      109.60819
H         14.80407       73.38571      110.97987
H         14.25935       75.11976      110.90177
N         15.02302       71.41196      107.97458
C         14.98848       70.08212      107.38154
C         13.88772       70.01663      106.33145
O         14.16617       69.65288      105.19758
C         14.78415       69.02068      108.48971
C         15.88327       69.07748      109.58768
C         15.61210       68.14245      110.72786
O         14.74004       67.29947      110.64646
O         16.25365       68.30674      111.89849
H         14.85476       71.50683      108.98432
H         15.96734       69.86296      106.90012
H         14.76689       68.00565      108.03450
H         13.80474       69.20377      108.97531
H         15.90573       70.07896      110.05226
H         16.89377       68.88836      109.17124
N         12.62210       70.42168      106.62759
C         11.55571       70.46323      105.65137
H         10.63858       70.88878      106.11550
H         11.84554       71.11679      104.80059
H         11.32990       69.44152      105.28430
H         12.41293       70.75854      107.57095
Ca        15.49664       67.14728      113.69175
O         14.55457       64.57302      110.61139
H         13.64849       64.95927      110.68915
H         14.41123       63.69459      110.18212
O         14.88533       63.79943      113.72701
H         15.38381       62.96064      113.88663
H         14.29011       63.58334      112.96900

Ca 1.0



