%chk=holoCaM.loop2.water1.frame27.chk
%nprocshared=20
%mem=10GB
%nosave
#b3lyp/svp scf=(tight,noincore,xqc) Test 
#IOP(5/87=12) Density=Current Pop=(MK,readradii) iop(6/33=2) iop(6/42=6)

holoCaM.loop2.water1.frame27 

   -2  1 
C         78.11203       85.12455       -2.96852
C         78.07679       83.90659       -3.84268
O         77.26907       83.02445       -3.58974
H         78.86720       85.85733       -3.32301
H         77.11527       85.61565       -2.99101
H         78.35235       84.83405       -1.92594
N         78.90092       83.80409       -4.92240
C         78.81008       82.69917       -5.86571
C         79.21235       81.38121       -5.21697
O         80.30305       81.29528       -4.67055
C         79.66215       82.98009       -7.12167
C         79.19954       82.16750       -8.30492
O         79.68827       82.38456       -9.39654
O         78.16492       81.30609       -8.17052
H         79.55469       84.57787       -5.11990
H         77.75146       82.67435       -6.20465
H         80.74727       82.84878       -6.91620
H         79.49598       84.03776       -7.42284
N         78.37224       80.30919       -5.25869
C         78.62755       79.02566       -4.61849
C         78.81574       77.88229       -5.61411
O         79.11986       76.78618       -5.16395
C         77.46072       78.71680       -3.67510
H         77.49480       80.41284       -5.76497
H         79.56236       79.08210       -4.02037
H         77.34797       79.53411       -2.93141
H         76.51269       78.63384       -4.25227
H         77.63175       77.76408       -3.13190
N         78.69109       78.05130       -6.96465
C         78.98768       77.00571       -7.94286
C         80.18614       77.43837       -8.77735
O         81.17443       76.71732       -8.78619
C         77.72707       76.59163       -8.73953
C         76.99380       77.67693       -9.47464
O         75.72718       77.97291       -9.12508
O         77.49961       78.23942      -10.43060
H         78.41062       78.96823       -7.32994
H         79.29540       76.06675       -7.42906
H         77.01538       76.15379       -8.00492
H         77.99141       75.78779       -9.46093
N         80.21367       78.64243       -9.41811
C         81.40226       79.18521      -10.06011
C         81.16866       79.56264      -11.50404
O         81.92706       79.12994      -12.35970
H         79.39066       79.25384       -9.36402
H         82.26751       78.49058       -9.99152
H         81.68167       80.11109       -9.51280
N         80.15512       80.40815      -11.83797
C         79.93002       80.93622      -13.17885
C         79.96613       82.46482      -13.17981
O         80.67914       83.02792      -13.99879
C         78.63767       80.37881      -13.83169
C         77.31659       80.54980      -13.12007
N         76.16691       80.22892      -13.75490
O         77.26380       80.95704      -11.97664
H         79.51767       80.70176      -11.09200
H         80.73737       80.60085      -13.86859
H         78.76657       79.28812      -14.00100
H         78.55355       80.86414      -14.82875
H         76.18071       79.88254      -14.72484
H         75.25872       80.34528      -13.28048
N         79.23513       83.20111      -12.29360
C         79.16322       84.65299      -12.28613
C         77.72953       85.14789      -12.37801
O         77.53788       86.35453      -12.33974
H         78.70377       82.72346      -11.56187
H         79.74978       85.09569      -13.11929
H         79.59192       85.02068      -11.32876
N         76.67254       84.28585      -12.48367
C         75.28042       84.69531      -12.55071
C         74.55464       84.12924      -11.33650
O         74.54946       82.92098      -11.14853
C         74.67266       84.18650      -13.88116
C         73.23668       84.67601      -14.09317
O         75.46950       84.57893      -14.97257
H         76.83642       83.27673      -12.52495
H         75.20542       85.80479      -12.54304
H         74.66559       83.07396      -13.86357
H         75.56496       85.56675      -14.94196
H         72.57694       84.33548      -13.26861
H         73.21365       85.78603      -14.14046
H         72.84374       84.27252      -15.05045
N         73.94724       84.96670      -10.45072
C         73.30693       84.53158       -9.20822
C         72.19190       83.52508       -9.43565
O         71.38646       83.67226      -10.34404
C         72.85573       85.77193       -8.36848
C         74.13334       86.40521       -7.74790
C         71.83633       85.41908       -7.26518
C         73.90470       87.71019       -6.99330
H         73.97318       85.97666      -10.65645
H         74.06485       83.99875       -8.59959
H         72.34238       86.49059       -9.04486
H         74.87318       86.61492       -8.54903
H         74.59455       85.67511       -7.04353
H         72.26417       84.69812       -6.54704
H         71.50613       86.32174       -6.71563
H         70.91328       84.99075       -7.70966
H         73.48524       88.47545       -7.67748
H         73.23303       87.56876       -6.12355
H         74.87996       88.07097       -6.60235
N         72.07075       82.50145       -8.53873
C         71.05935       81.45720       -8.55872
C         70.17110       81.64455       -7.32124
O         70.43067       82.56716       -6.56276
C         71.76501       80.07287       -8.53201
C         72.98604       79.96632       -9.43184
O         74.02048       80.80500       -9.18998
O         73.08393       79.08045      -10.26547
H         72.73089       82.46704       -7.74856
H         70.44229       81.54404       -9.47944
H         71.02674       79.26787       -8.74121
H         72.16489       79.90847       -7.50785
N         69.09819       80.85225       -7.04139
C         68.24629       81.09745       -5.87085
C         68.98646       80.92274       -4.53818
O         68.91659       81.84851       -3.74389
C         66.94031       80.27349       -5.92315
C         66.00689       80.57425       -4.76197
C         65.55498       81.88603       -4.50934
C         65.56814       79.53418       -3.92252
C         64.69280       82.14608       -3.43864
C         64.69786       79.79871       -2.85927
C         64.26241       81.10322       -2.61623
H         68.85339       80.09534       -7.69866
H         67.91072       82.15714       -5.92802
H         67.15949       79.19098       -5.96005
H         66.40970       80.53026       -6.86493
H         65.86695       82.71255       -5.13332
H         65.89223       78.51568       -4.09344
H         64.35500       83.15708       -3.24777
H         64.35927       78.99101       -2.22328
H         63.58999       81.30575       -1.79197
N         69.71273       79.80478       -4.20317
C         70.44032       79.64209       -2.94145
C         71.25896       80.85854       -2.55672
O         71.23595       81.29064       -1.41275
C         71.40157       78.47630       -3.24401
C         70.57725       77.62770       -4.17657
C         69.95636       78.68144       -5.08659
H         69.72701       79.36308       -2.13504
H         72.26938       78.83051       -3.84826
H         71.80253       77.95936       -2.34618
H         71.13363       76.82933       -4.71325
H         69.76830       77.16232       -3.57036
H         70.66748       79.00596       -5.87568
H         69.04754       78.25115       -5.54120
N         72.02537       81.43964       -3.50841
C         72.94640       82.54740       -3.30427
C         72.17337       83.79859       -2.92554
O         72.47009       84.39339       -1.89960
C         73.77151       82.73416       -4.59771
C         74.54230       81.43175       -4.94555
C         75.11401       81.41898       -6.32279
O         75.15293       82.42700       -7.00472
O         75.49177       80.23989       -6.85138
H         71.93409       81.04877       -4.45699
H         73.67197       82.29561       -2.49818
H         74.48453       83.58262       -4.50449
H         73.06470       82.95526       -5.42059
H         73.86655       80.56018       -4.94925
H         75.32741       81.20934       -4.19308
N         71.13147       84.22263       -3.69502
C         70.30202       85.36934       -3.38668
H         69.25555       85.02898       -3.22975
H         70.63789       85.90416       -2.47474
H         70.31787       86.07621       -4.24238
H         70.88342       83.68525       -4.53121
Ca        76.29806       80.89650       -9.43228
O         76.95297       84.39797       -8.83716
H         76.54487       84.31751       -7.94007
H         77.45337       85.25056       -8.79735

Ca 1.0



