%chk=holoCaM.loop2.water1.frame30.chk
%nprocshared=20
%mem=10GB
%nosave
#b3lyp/svp scf=(tight,noincore,xqc) Test 
#IOP(5/87=12) Density=Current Pop=(MK,readradii) iop(6/33=2) iop(6/42=6)

holoCaM.loop2.water1.frame30 

   -2  1 
C         81.37545       91.63499       -5.68153
C         81.59819       90.83139       -6.92141
O         80.93797       89.81677       -7.09945
H         80.57918       91.17473       -5.05817
H         82.31711       91.66969       -5.09584
H         81.06903       92.66538       -5.95609
N         82.51487       91.23824       -7.84402
C         82.76596       90.48114       -9.05963
C         83.40453       89.15486       -8.66873
O         84.53506       89.14562       -8.20138
C         83.63532       91.31184      -10.02389
C         83.74575       90.74074      -11.40526
O         84.36623       91.36410      -12.24774
O         83.14081       89.58554      -11.74504
H         83.02173       92.12243       -7.68043
H         81.78250       90.32817       -9.55690
H         84.65003       91.46010       -9.59351
H         83.16077       92.31141      -10.14100
N         82.67262       88.00919       -8.71688
C         83.13243       86.73375       -8.17818
C         84.29135       86.15133       -8.95646
O         85.18468       85.59106       -8.33673
C         81.97996       85.72645       -8.13497
H         81.70606       88.07089       -9.06200
H         83.44156       86.87969       -7.11823
H         81.15202       86.13847       -7.51702
H         81.59708       85.50842       -9.15310
H         82.31975       84.78009       -7.66071
N         84.34462       86.24541      -10.31485
C         85.42959       85.67668      -11.11206
C         86.33143       86.74426      -11.70918
O         87.29814       86.37991      -12.36536
C         84.86071       84.72877      -12.19272
C         83.98243       85.37993      -13.23222
O         83.49699       84.69335      -14.11632
O         83.72915       86.70122      -13.21394
H         83.59635       86.76655      -10.79370
H         86.09322       85.06146      -10.46667
H         84.27174       83.93421      -11.68664
H         85.70704       84.24190      -12.72432
N         86.11026       88.07542      -11.50750
C         86.98280       89.10455      -12.03676
C         87.04416       89.04392      -13.53922
O         88.13363       88.88723      -14.07239
H         85.30963       88.38804      -10.94400
H         88.00063       88.98356      -11.60459
H         86.60726       90.10370      -11.73104
N         85.91086       89.17329      -14.28796
C         85.92097       89.15423      -15.74816
C         85.59063       90.52726      -16.32839
O         85.64707       90.67607      -17.54062
C         85.01226       88.02103      -16.28093
C         83.52538       88.28920      -16.17909
N         82.74332       88.21697      -17.28307
O         83.01656       88.55161      -15.10105
H         85.01495       89.31220      -13.79930
H         86.94745       88.91296      -16.09925
H         85.25709       87.08612      -15.72942
H         85.26345       87.84231      -17.34854
H         83.14277       87.97688      -18.20243
H         81.72792       88.38045      -17.21870
N         85.27216       91.58385      -15.51975
C         85.03986       92.94229      -15.97926
C         83.62242       93.41644      -15.71978
O         83.35618       94.58566      -15.95685
H         85.21083       91.45042      -14.50590
H         85.24380       93.04989      -17.06543
H         85.74849       93.60166      -15.43329
N         82.64364       92.55906      -15.31046
C         81.23575       92.92337      -15.18646
C         80.66822       92.52473      -13.79464
O         81.10140       91.26976      -13.33820
C         80.45215       92.31813      -16.39041
C         80.68242       93.14165      -17.66288
O         80.84241       90.98658      -16.61187
H         82.87480       91.56403      -15.17752
H         81.08460       94.02466      -15.24051
H         79.35496       92.38639      -16.21031
H         80.02608       90.46433      -16.82062
H         80.31678       94.18145      -17.50299
H         81.75493       93.17889      -17.94027
H         80.10226       92.70984      -18.50549
N         79.19983       92.62942      -13.81249
C         78.42863       92.02046      -12.71744
C         77.29623       91.24388      -13.37427
O         76.50852       91.83102      -14.10279
C         77.91583       93.09211      -11.70488
C         79.11830       93.83433      -11.06145
C         77.04091       92.43171      -10.61964
C         78.71704       94.96808      -10.11514
H         78.86111       93.58499      -14.07538
H         79.05095       91.30528      -12.14464
H         77.28754       93.82848      -12.25383
H         79.73476       94.29481      -11.86115
H         79.75634       93.11067      -10.50685
H         76.17872       91.90386      -11.07328
H         77.63957       91.70944      -10.02808
H         76.60791       93.18391       -9.93185
H         79.63212       95.47247       -9.73927
H         78.09491       95.71469      -10.65232
H         78.16393       94.58995       -9.23232
N         77.15974       89.90707      -13.14255
C         76.08349       89.08505      -13.68575
C         74.96636       88.98805      -12.66329
O         75.07774       89.57539      -11.60479
C         76.62439       87.68636      -14.06310
C         77.38550       87.66602      -15.36605
O         78.52378       88.35275      -15.58378
O         76.94515       86.99282      -16.28438
H         77.78752       89.46536      -12.45760
H         75.61713       89.56176      -14.57619
H         75.76494       87.00080      -14.21467
H         77.22919       87.26262      -13.23152
N         73.81270       88.31912      -12.95098
C         72.66316       88.30866      -12.05287
C         72.95430       87.67151      -10.69562
O         72.64888       88.32870       -9.70750
C         71.42930       87.67643      -12.73767
C         70.15602       87.88268      -11.93843
C         69.71538       89.18333      -11.61681
C         69.38482       86.78373      -11.52225
C         68.54151       89.37580      -10.88420
C         68.20402       86.98294      -10.79625
C         67.78542       88.27692      -10.47464
H         73.72114       87.86261      -13.87010
H         72.39707       89.37287      -11.87826
H         71.61158       86.59950      -12.93428
H         71.27763       88.17485      -13.72000
H         70.27513       90.05487      -11.92903
H         69.69119       85.77410      -11.76354
H         68.21698       90.37901      -10.63721
H         67.61101       86.13387      -10.48269
H         66.87366       88.42971       -9.91125
N         73.53170       86.43792      -10.51288
C         73.74383       85.85884       -9.19167
C         74.79378       86.61407       -8.38486
O         74.88899       86.38514       -7.18835
C         74.14756       84.41186       -9.49183
C         74.90161       84.56614      -10.79650
C         74.02075       85.55936      -11.55836
H         72.79423       85.85946       -8.61130
H         74.68449       83.88419       -8.67428
H         73.22621       83.83509       -9.73496
H         75.87076       85.06319      -10.55810
H         75.11932       83.62656      -11.34731
H         74.66541       86.06589      -12.30060
H         73.15620       85.06665      -12.04984
N         75.61533       87.52562       -8.97310
C         76.55205       88.36502       -8.24007
C         75.79443       89.52710       -7.61966
O         75.93062       89.75950       -6.42705
C         77.66633       88.85592       -9.18960
C         78.49365       87.66129       -9.71464
C         79.59908       88.04807      -10.65662
O         79.81784       89.21515      -10.93446
O         80.37320       87.08563      -11.19326
H         75.57519       87.64230       -9.99383
H         77.06808       87.78263       -7.44332
H         78.34373       89.54398       -8.63690
H         77.21991       89.40630      -10.04305
H         77.83001       86.95475      -10.25508
H         78.94875       87.12688       -8.85197
N         74.94292       90.27561       -8.37725
C         74.16160       91.38909       -7.88317
H         73.08072       91.15000       -7.98356
H         74.37956       91.62165       -6.82151
H         74.37933       92.28747       -8.49890
H         74.80700       90.02851       -9.36006
Ca        79.89648       89.62925      -14.34300
O         80.52587       86.24729      -15.06781
H         80.31564       86.05044      -16.01505
H         81.51128       86.18322      -15.01740

Ca 1.0



