%chk=holoCaM-CaMKII.loop1.water2.frame356.chk
%nprocshared=20
%mem=10GB
%nosave
#b3lyp/svp scf=(tight,noincore,xqc) Test 
#IOP(5/87=12) Density=Current Pop=(MK,readradii) iop(6/33=2) iop(6/42=6)

holoCaM-CaMKII.loop1.water2.frame356 

   0  1 
C         55.12078       67.29605       30.68386
C         55.52933       68.26152       31.75066
O         54.80449       69.20977       32.01337
H         54.14277       67.58409       30.24447
H         55.88973       67.29004       29.88296
H         55.03788       66.27864       31.12035
N         56.70956       68.08112       32.40226
C         57.18815       68.96615       33.45513
C         57.28359       70.38513       32.92014
O         57.95745       70.59840       31.92266
C         58.55140       68.45805       33.96454
C         59.08654       69.20278       35.14573
O         58.45159       70.09697       35.67171
O         60.28533       68.86136       35.64062
H         57.29155       67.27341       32.12924
H         56.46987       68.92252       34.29856
H         59.29480       68.51707       33.14193
H         58.44884       67.39633       34.27802
N         56.59292       71.39463       33.52424
C         56.48884       72.74420       32.97979
C         57.20985       73.77406       33.85341
O         57.26985       74.93532       33.46897
C         54.97597       73.04206       32.82477
C         54.58628       74.10476       31.78256
C         55.03196       73.77103       30.33893
C         54.60490       72.36437       29.86568
N         55.00600       72.12612       28.48083
H         56.07348       71.18889       34.38474
H         56.97925       72.75525       31.98831
H         54.54440       73.29146       33.81977
H         54.45773       72.11147       32.51400
H         54.98231       75.10063       32.07073
H         53.47501       74.17064       31.78961
H         56.13444       73.85598       30.25667
H         54.58938       74.53406       29.66251
H         53.50176       72.25095       29.95550
H         55.09239       71.58919       30.49508
H         56.04270       72.22773       28.38508
H         54.73941       71.15059       28.21272
H         54.52055       72.79874       27.84506
N         57.79285       73.41081       35.03466
C         58.55007       74.29084       35.92287
C         59.97925       73.79012       36.17977
O         60.72240       74.48773       36.85236
C         57.78630       74.49315       37.26004
C         57.42418       73.23559       38.03997
O         56.82219       73.34562       39.09423
O         57.71357       72.00616       37.55930
H         57.68721       72.44045       35.33094
H         58.65468       75.29551       35.45354
H         56.83760       75.02457       37.02632
H         58.38760       75.16621       37.91048
N         60.44329       72.61200       35.66625
C         61.80715       72.13145       35.82837
C         62.21840       71.88050       37.26325
O         63.23026       72.43017       37.67768
H         59.83099       72.03268       35.08415
H         62.50807       72.85516       35.35863
H         61.90745       71.16802       35.28211
N         61.51597       71.03248       38.06857
C         61.96137       70.65628       39.41501
C         62.14488       69.14147       39.57527
O         62.58689       68.72644       40.63645
C         61.02710       71.25819       40.49665
C         59.59334       70.82385       40.45318
O         59.20855       70.03636       39.61761
O         58.71585       71.31410       41.34805
H         60.63860       70.63742       37.69898
H         62.96189       71.09619       39.61580
H         61.03956       72.36293       40.38918
H         61.42443       71.00308       41.50234
N         61.82420       68.25754       38.58185
C         61.97724       66.81448       38.68717
C         60.64271       66.10900       38.82217
O         60.64507       64.88627       38.86492
H         61.42225       68.59750       37.70663
H         62.57665       66.53242       39.57956
H         62.52304       66.44932       37.79027
N         59.47994       66.80515       39.00671
C         58.21768       66.17991       39.38145
C         56.98581       66.71928       38.57577
O         57.38268       67.57157       37.53415
C         57.98506       66.36743       40.90003
C         59.00680       65.58142       41.74196
O         58.00046       67.72806       41.25433
H         59.51012       67.82529       39.01759
H         58.29199       65.08134       39.21831
H         56.98719       65.95419       41.16103
H         58.94650       68.02875       41.29807
H         60.04422       65.92776       41.54824
H         58.78972       65.71978       42.82163
H         58.94301       64.49814       41.50523
N         56.27176       65.56004       38.01444
C         55.01777       65.80352       37.28011
C         53.82544       65.86434       38.23762
O         53.65033       64.96730       39.04924
C         54.87279       64.68973       36.19906
C         56.03958       64.83333       35.17518
C         53.50931       64.76835       35.48165
C         56.10811       63.72427       34.12545
H         56.13212       64.80277       38.72391
H         55.07479       66.74963       36.71551
H         54.93739       63.69868       36.70121
H         57.01129       64.81688       35.71352
H         55.95942       65.81313       34.65179
H         53.39252       65.74013       34.95769
H         53.39619       63.94510       34.74831
H         52.67769       64.64628       36.20554
H         56.98565       63.90247       33.46716
H         56.23077       62.73762       34.61894
H         55.20791       63.71173       33.47985
N         52.92564       66.88351       38.12837
C         51.73610       67.04817       38.96464
C         50.47627       66.72675       38.17333
O         50.56410       66.36515       37.01446
C         51.66533       68.51379       39.47334
C         52.86954       68.87263       40.33157
O         51.59232       69.39027       38.37536
H         53.06992       67.57081       37.38157
H         51.76159       66.35050       39.82990
H         50.76085       68.63790       40.10890
H         51.20365       70.24359       38.70046
H         53.79237       68.79525       39.72500
H         52.76386       69.91481       40.70036
H         52.93472       68.19533       41.20817
N         49.25092       66.85685       38.75930
C         47.98631       66.65385       38.05336
C         47.88795       67.56816       36.83959
O         47.64566       67.07721       35.74485
C         46.76892       66.89327       38.99579
C         46.66935       65.83681       40.10901
O         46.76242       68.19793       39.52969
H         49.22214       67.13534       39.74748
H         47.92581       65.60089       37.69724
H         45.84046       66.78136       38.39404
H         47.35516       68.22323       40.32572
H         45.76975       66.03360       40.73049
H         46.57172       64.82460       39.66277
H         47.56155       65.85091       40.76857
N         48.07363       68.91009       36.96318
C         47.95038       69.85854       35.85739
C         48.90966       69.53740       34.72806
O         48.47750       69.45006       33.58789
C         48.18713       71.30303       36.35669
C         47.06034       71.73731       37.30963
C         47.20168       73.19264       37.76396
C         45.99294       73.58751       38.62679
N         46.07394       74.98317       39.05152
H         48.32338       69.27157       37.89611
H         46.91797       69.81841       35.44303
H         48.17449       71.98981       35.48126
H         49.18100       71.38940       36.85177
H         47.03363       71.08500       38.20782
H         46.09429       71.63186       36.76893
H         47.24177       73.85545       36.87211
H         48.14151       73.31643       38.34602
H         45.94251       72.93098       39.52415
H         45.05942       73.44410       38.03705
H         45.22579       75.21408       39.61828
H         46.92639       75.13192       39.63816
H         46.10155       75.61152       38.21584
N         50.22876       69.34435       34.98103
C         51.22871       69.08256       33.94647
C         50.84715       67.87062       33.11078
O         50.69327       68.01825       31.90546
C         52.61160       68.92940       34.60991
C         53.05544       70.28232       35.21554
C         54.30473       70.21764       36.03701
O         54.74621       71.24054       36.53382
O         54.94320       69.05765       36.24620
H         50.52358       69.37854       35.96739
H         51.28091       69.95386       33.25482
H         53.36973       68.59955       33.87495
H         52.53727       68.14010       35.37893
H         52.27352       70.69603       35.88169
H         53.21386       70.99940       34.38250
N         50.63193       66.65428       33.67532
C         50.18419       65.51529       32.90254
H         49.20994       65.74872       32.41948
H         50.93177       65.26140       32.12230
H         50.04177       64.63666       33.56697
H         50.75988       66.53784       34.68442
Ca        57.12928       69.82906       38.06117
O         54.28387       71.57210       39.30694
H         53.42274       71.69930       38.83594
H         54.52876       72.47829       39.61570
O         55.98502       69.71939       40.96388
H         55.35501       69.60748       41.71879
H         55.93242       68.86265       40.47064

Ca 1.0



