%chk=holoCaM.loop4.water3.frame140.chk
%nprocshared=20
%mem=10GB
%nosave
#b3lyp/svp scf=(tight,noincore,xqc) Test 
#IOP(5/87=12) Density=Current Pop=(MK,readradii) iop(6/33=2) iop(6/42=6)

holoCaM.loop4.water3.frame140 

   -3  1 
C         33.44237       93.71869        5.16192
C         32.39704       93.31436        6.15491
O         32.14453       92.12315        6.26063
H         34.39867       93.21406        5.42071
H         33.13361       93.39501        4.14560
H         33.60662       94.81476        5.16376
N         31.73531       94.23851        6.91638
C         30.75490       93.84724        7.92476
C         29.98767       95.04274        8.47857
O         30.59561       95.93677        9.05251
C         31.45472       93.07799        9.06793
C         30.46967       92.56076       10.06674
O         29.53564       91.86829        9.69512
O         30.62684       92.83348       11.37599
H         31.92989       95.24031        6.76398
H         30.02388       93.16739        7.44161
H         32.20728       93.72349        9.57294
H         31.98799       92.19747        8.66296
N         28.62597       95.09214        8.35889
C         27.78007       96.15632        8.90182
C         26.75983       95.62711        9.92795
O         25.98114       96.42109       10.43025
C         27.05335       96.90815        7.73608
C         26.02037       96.01113        6.99129
C         28.09953       97.50486        6.77424
C         25.24650       96.73992        5.88830
H         28.16032       94.32550        7.85287
H         28.40664       96.90346        9.43636
H         26.49361       97.75948        8.18317
H         25.27065       95.63774        7.72027
H         26.51222       95.13164        6.54049
H         27.62437       98.15234        6.01048
H         28.81328       98.14262        7.33694
H         28.66915       96.70430        6.25669
H         24.49956       96.04963        5.44125
H         24.71289       97.61988        6.30489
H         25.91899       97.06902        5.07058
N         26.67614       94.29657       10.24084
C         25.58839       93.70820       11.03843
C         26.03724       92.59535       12.01079
O         25.18503       92.09737       12.73692
C         24.48312       93.17109       10.08954
C         24.96749       92.13506        9.11211
O         26.27892       91.86784        9.02093
O         24.17592       91.55077        8.39086
H         27.33668       93.66974        9.78341
H         25.11049       94.49875       11.65662
H         24.04395       94.00888        9.50683
H         23.67113       92.72903       10.70808
N         27.32673       92.16164       12.10751
C         27.79669       91.17420       13.07833
C         27.33742       89.72519       12.90422
O         27.74488       88.92045       13.73060
H         28.04555       92.61364       11.53495
H         27.50988       91.51867       14.09620
H         28.90716       91.15337       13.03926
N         26.50657       89.29536       11.90919
C         26.02760       87.90218       11.83101
C         27.12374       86.85988       11.57946
O         26.89737       85.70557       11.91484
C         24.88707       87.75373       10.79058
C         25.29532       88.16071        9.40450
O         26.57141       88.49104        9.17226
O         24.46166       88.27622        8.52223
H         26.15099       89.98685       11.23458
H         25.57513       87.66157       12.81912
H         24.06606       88.43358       11.10434
H         24.49223       86.71516       10.77350
N         28.29481       87.16328       10.94728
C         29.36000       86.19576       10.70676
C         29.58219       85.87535        9.23698
O         30.57140       85.21697        8.94827
H         28.45138       88.12368       10.61782
H         29.17722       85.23237       11.22832
H         30.29510       86.62460       11.12751
N         28.70727       86.25869        8.25936
C         28.88894       85.96552        6.83800
C         28.94596       87.27006        6.05179
O         28.69998       88.31059        6.63777
C         27.71236       85.10774        6.30538
C         27.26336       83.99493        7.26943
C         26.21867       83.12127        6.62097
N         24.93759       83.11278        7.06125
O         26.53646       82.41136        5.67869
H         27.85698       86.75479        8.52281
H         29.83739       85.40490        6.69271
H         28.01034       84.68408        5.32074
H         26.81773       85.75201        6.14617
H         26.83386       84.47841        8.17590
H         28.11686       83.36087        7.58827
H         24.63628       83.71774        7.83897
H         24.23481       82.51081        6.60570
N         29.21371       87.29834        4.71486
C         29.16159       88.53088        3.92237
C         28.05756       88.36802        2.90477
O         28.10714       87.40227        2.15343
C         30.51095       88.83024        3.20920
C         30.43861       90.18314        2.46843
C         31.68383       88.87085        4.19690
H         29.42166       86.41085        4.23116
H         28.93347       89.40568        4.56855
H         30.72261       88.02736        2.46881
H         31.39201       90.39173        1.93903
H         29.62507       90.18835        1.71351
H         30.25214       91.01248        3.18445
H         31.53156       89.66385        4.95673
H         31.79858       87.89193        4.70686
H         32.63021       89.08133        3.65251
N         27.03671       89.27208        2.80712
C         25.94406       89.09433        1.85585
C         26.01045       90.09653        0.72118
O         26.87156       90.95801        0.70297
C         24.55580       89.05375        2.55331
C         23.90780       90.38365        2.89143
N         24.43409       91.24326        3.78879
O         22.85072       90.67299        2.34951
H         27.05685       90.10736        3.40616
H         26.05102       88.09877        1.37467
H         24.60833       88.40347        3.45048
H         23.85618       88.54715        1.85310
H         25.31342       91.04561        4.27261
H         23.94423       92.12408        4.00723
N         25.11813       89.98287       -0.29193
C         25.04035       90.82401       -1.48333
C         24.85471       92.30044       -1.15033
O         25.62742       93.11429       -1.63727
C         23.92836       90.26462       -2.43050
C         22.57306       90.04619       -1.76999
C         21.65495       91.09632       -1.60705
C         22.23191       88.76825       -1.28043
C         20.44957       90.88570       -0.92659
C         21.03312       88.56148       -0.59700
C         20.14180       89.61902       -0.40842
O         18.99818       89.40627        0.27312
H         24.46022       89.20333       -0.20727
H         25.99630       90.73816       -2.04865
H         24.30144       89.26620       -2.75052
H         23.82740       90.85927       -3.36333
H         21.88064       92.08361       -1.98827
H         22.91315       87.93332       -1.39380
H         19.76189       91.71037       -0.79104
H         20.80557       87.57930       -0.20090
H         18.36075       90.11363        0.44436
N         23.84697       92.72028       -0.34205
C         23.54743       94.12423       -0.06563
C         24.70035       94.78286        0.67431
O         25.17758       95.82628        0.25227
C         22.22713       94.19810        0.72988
C         21.69274       95.62634        0.87812
C         20.33626       95.60395        1.52474
O         20.18478       95.10361        2.76581
O         19.36195       96.02696        0.92238
H         23.24992       92.00134        0.08656
H         23.36741       94.64863       -1.03157
H         22.34475       93.71695        1.72600
H         21.46367       93.62541        0.15663
H         21.60397       96.08739       -0.13122
H         22.38596       96.24088        1.48949
N         25.23640       94.15951        1.75674
C         26.40022       94.61823        2.51491
C         27.57466       94.93790        1.60766
O         28.14503       96.01207        1.74195
C         26.75970       93.51736        3.53241
C         28.02093       93.76372        4.36053
C         28.14648       92.67053        5.38044
O         29.11322       91.92802        5.37774
O         27.17467       92.49518        6.29462
H         24.81476       93.25610        2.01912
H         26.14495       95.54127        3.08103
H         26.89279       92.55001        2.99908
H         25.89432       93.43468        4.22467
H         27.96367       94.74013        4.87766
H         28.91373       93.76841        3.69863
N         27.97859       94.06914        0.64672
C         29.09808       94.34491       -0.22435
H         30.03054       94.41307        0.37460
H         29.20779       93.52655       -0.96720
H         28.93258       95.29916       -0.76853
H         27.45810       93.19887        0.50938
Ca        27.18554       90.19079        7.94010
O         25.60612       89.25058        5.92500
H         25.21820       90.06504        6.33525
H         24.84212       88.62887        5.85765
O         30.84175       89.55745        7.56981
H         30.38543       90.30102        7.10168
H         31.76968       89.86930        7.70310
O         30.63103       89.36909       10.38967
H         30.05379       89.81337       11.06048
H         31.49782       89.84143       10.45317

Ca 1.0



