%chk=holoCaM-CaMKII.loop2.water2.frame165.chk
%nprocshared=20
%mem=10GB
%nosave
#b3lyp/svp scf=(tight,noincore,xqc) Test 
#IOP(5/87=12) Density=Current Pop=(MK,readradii) iop(6/33=2) iop(6/42=6)

holoCaM-CaMKII.loop2.water2.frame165 

   -2  1 
C         10.89637       67.02072       -2.42612
C         10.50560       68.30632       -3.10227
O          9.66054       68.28052       -3.98471
H         11.67030       67.18915       -1.64643
H         10.00554       66.57467       -1.93451
H         11.29840       66.30445       -3.17144
N         11.06157       69.48432       -2.70847
C         10.67372       70.77873       -3.25666
C         11.08915       70.93732       -4.71093
O         12.26455       70.78197       -5.01271
C         11.31037       71.90795       -2.42445
C         10.82722       73.24981       -2.88837
O         11.70050       74.16989       -3.33752
O          9.63481       73.50223       -2.87442
H         11.74870       69.46256       -1.93830
H          9.57076       70.88365       -3.15330
H         12.41922       71.85839       -2.49214
H         11.02183       71.78795       -1.35828
N         10.17569       71.32637       -5.64854
C         10.51030       71.58991       -7.04539
C         10.25664       73.04629       -7.45670
O         10.55967       73.37323       -8.59593
C          9.69512       70.64157       -7.93096
H          9.19878       71.46117       -5.35306
H         11.58795       71.38844       -7.22771
H          9.94934       70.78541       -9.00255
H          9.91531       69.58705       -7.65884
H          8.60656       70.82218       -7.79419
N          9.68779       73.96570       -6.61683
C          9.37496       75.34502       -7.01028
C          9.82050       76.37613       -5.96617
O         10.45796       77.34254       -6.36052
C          7.89199       75.48998       -7.44099
C          6.85248       75.03862       -6.46833
O          7.20018       74.54828       -5.27853
O          5.67772       75.02644       -6.80005
H          9.39395       73.65727       -5.68411
H          9.91073       75.60463       -7.95142
H          7.75119       74.85204       -8.34244
H          7.68586       76.54163       -7.73429
N          9.54326       76.24569       -4.63170
C          9.92891       77.21603       -3.61175
C          8.75144       77.72920       -2.78682
O          8.98239       78.54692       -1.90780
H          9.07470       75.40332       -4.29479
H         10.43708       78.09227       -4.06825
H         10.64856       76.72987       -2.91984
N          7.46686       77.32824       -3.02047
C          6.29209       77.87622       -2.33340
C          6.13979       77.50162       -0.84551
O          5.15167       77.92176       -0.25822
C          5.01283       77.49603       -3.12290
C          4.70366       76.02205       -3.17021
N          3.61396       75.58485       -3.83912
O          5.43037       75.21715       -2.61274
H          7.29715       76.67591       -3.79592
H          6.35164       78.98517       -2.39635
H          5.12724       77.85568       -4.16950
H          4.13989       78.02086       -2.67987
H          2.99292       76.24763       -4.32492
H          3.39009       74.58124       -3.87010
N          7.05614       76.75974       -0.15493
C          6.92960       76.45974        1.27275
C          5.90497       75.38549        1.63592
O          5.76620       75.11174        2.81935
H          7.92201       76.46721       -0.62315
H          6.70920       77.40127        1.82435
H          7.90847       76.08638        1.64229
N          5.17097       74.72483        0.69650
C          4.18939       73.67650        0.98387
C          4.49772       72.40629        0.20903
O          4.64827       72.47330       -1.00268
C          2.76910       74.14415        0.57687
C          2.21227       75.17558        1.55337
O          2.76366       74.69034       -0.71954
H          5.29833       74.98219       -0.28413
H          4.15685       73.42297        2.06687
H          2.06445       73.27866        0.63431
H          2.64160       73.94243       -1.35918
H          2.84968       76.08229        1.58457
H          1.18427       75.46018        1.24235
H          2.15197       74.73245        2.57158
N          4.50429       71.18840        0.83255
C          4.55403       69.93740        0.07494
C          3.27751       69.85217       -0.75662
O          2.19450       69.83100       -0.18722
C          4.68109       68.67985        0.99522
C          5.96524       68.75619        1.86424
C          4.68783       67.39469        0.13486
C          6.12062       67.58332        2.83776
H          4.38519       71.15305        1.85568
H          5.45125       69.95503       -0.58206
H          3.79801       68.64210        1.67190
H          5.93980       69.67677        2.48169
H          6.86469       68.80451        1.21329
H          3.76244       67.31436       -0.46463
H          5.55981       67.38608       -0.55432
H          4.70911       66.48144        0.76004
H          6.26334       66.62290        2.30289
H          7.02081       67.74299        3.46708
H          5.23181       67.50946        3.49986
N          3.33733       69.82679       -2.11484
C          2.14660       69.77166       -2.96849
C          1.69021       68.33717       -3.08120
O          2.35919       67.47171       -2.53929
C          2.47802       70.25668       -4.39294
C          3.08148       71.61958       -4.42504
O          2.64654       72.48519       -5.16731
O          4.19009       71.83293       -3.70704
H          4.26946       69.83339       -2.55091
H          1.35267       70.43014       -2.55107
H          1.56998       70.25263       -5.03085
H          3.23184       69.56631       -4.83327
N          0.58695       67.98018       -3.79853
C          0.28393       66.57290       -4.00264
C          1.31489       65.93775       -4.94373
O          1.86677       64.91762       -4.55428
C         -1.15869       66.29743       -4.47376
C         -1.42305       64.81274       -4.35180
C         -1.56200       64.00844       -5.49325
C         -1.48901       64.21462       -3.07740
C         -1.74862       62.62807       -5.36022
C         -1.68270       62.83875       -2.94987
C         -1.80815       62.04441       -4.09068
H         -0.02616       68.70507       -4.20074
H          0.34515       66.09015       -3.00154
H         -1.31787       66.63580       -5.51068
H         -1.89181       66.83661       -3.83541
H         -1.50107       64.44432       -6.48231
H         -1.38638       64.81361       -2.18021
H         -1.83900       62.00845       -6.24201
H         -1.72794       62.38955       -1.96570
H         -1.94851       60.97644       -3.98942
N          1.66714       66.46846       -6.17130
C          2.64547       65.86502       -7.08148
C          4.05657       65.70004       -6.52686
O          4.89735       65.15354       -7.22696
C          2.69922       66.83511       -8.27031
C          1.30488       67.41368       -8.26912
C          1.08978       67.65165       -6.78079
H          2.23538       64.87757       -7.38941
H          3.38220       67.68365       -8.02481
H          3.03714       66.38217       -9.22676
H          1.17579       68.31859       -8.90087
H          0.59768       66.62425       -8.61097
H          1.67676       68.53247       -6.45852
H          0.01850       67.81758       -6.59421
N          4.38608       66.14295       -5.28330
C          5.68860       65.98239       -4.66173
C          5.56960       64.88605       -3.62189
O          6.32242       63.92490       -3.69309
C          6.13355       67.33267       -4.06256
C          6.31586       68.38434       -5.17309
C          6.67185       69.74687       -4.65542
O          6.82476       70.66108       -5.44772
O          6.80600       69.98426       -3.33733
H          3.67674       66.61210       -4.71180
H          6.45806       65.65826       -5.39891
H          7.09472       67.20513       -3.51880
H          5.36618       67.68457       -3.33723
H          5.37256       68.48885       -5.75000
H          7.11960       68.04751       -5.86351
N          4.58717       64.92274       -2.67865
C          4.32764       63.85227       -1.73984
H          3.30906       63.44819       -1.92983
H          5.05309       63.01852       -1.83580
H          4.36563       64.24932       -0.70569
H          3.94957       65.72343       -2.64942
Ca         5.78779       73.16668       -4.35392
O          7.99525       73.94201       -0.74370
H          7.58919       73.33212       -0.08051
H          8.86515       74.19978       -0.34578
O          8.08571       70.83907       -0.85513
H          7.90802       69.86778       -0.91894
H          8.94231       70.90064       -0.36411

Ca 1.0



