%chk=holoCaM-CaMKII.loop1.water2.frame409.chk
%nprocshared=20
%mem=10GB
%nosave
#b3lyp/svp scf=(tight,noincore,xqc) Test 
#IOP(5/87=12) Density=Current Pop=(MK,readradii) iop(6/33=2) iop(6/42=6)

holoCaM-CaMKII.loop1.water2.frame409 

   0  1 
C         42.37735       41.52494       46.11019
C         43.19742       40.35343       45.66027
O         42.74437       39.61151       44.80145
H         41.41699       41.16814       46.53568
H         42.91050       42.11877       46.88256
H         42.17300       42.18431       45.24058
N         44.42899       40.12872       46.19567
C         45.29820       39.04330       45.76232
C         44.62733       37.69904       46.00528
O         44.31917       37.37464       47.14394
C         46.64360       39.14146       46.50520
C         47.67425       38.16203       46.04396
O         47.44807       37.37842       45.14017
O         48.87691       38.16412       46.63639
H         44.77176       40.77793       46.92100
H         45.49953       39.18337       44.67533
H         46.47727       38.99602       47.59408
H         47.06929       40.15547       46.34379
N         44.34107       36.88538       44.95115
C         43.53447       35.67793       45.06288
C         44.43155       34.47780       45.32328
O         44.32647       33.86220       46.37443
C         42.67693       35.54599       43.77379
C         41.49784       34.56087       43.83555
C         40.47574       34.86536       44.95359
C         39.97099       36.32583       45.01558
N         39.26010       36.73796       43.80480
H         44.57435       37.23036       44.01327
H         42.83914       35.81760       45.91549
H         43.31599       35.29169       42.90245
H         42.24888       36.54298       43.54027
H         41.87049       33.52113       43.95720
H         40.97645       34.61101       42.85425
H         40.94316       34.63147       45.93202
H         39.60951       34.17890       44.83681
H         40.81701       37.02122       45.20576
H         39.28432       36.41971       45.88467
H         39.88409       36.69118       42.96855
H         38.41964       36.13385       43.66016
H         38.94687       37.72933       43.92218
N         45.35991       34.10977       44.39622
C         46.30896       33.00404       44.55453
C         47.34154       33.19807       45.66231
O         48.06244       32.24892       45.94190
C         47.07817       32.77399       43.22727
C         47.79492       34.00984       42.69650
O         47.67593       35.21018       43.31690
O         48.42542       33.93019       41.65553
H         45.36152       34.63267       43.51081
H         45.72873       32.08412       44.79321
H         46.35113       32.44534       42.45383
H         47.80966       31.94601       43.36477
N         47.52092       34.38579       46.29989
C         48.55034       34.59056       47.30520
C         49.94722       34.36007       46.75836
O         50.66900       33.53996       47.30692
H         46.92180       35.18498       46.06251
H         48.36249       33.91993       48.17138
H         48.49325       35.63862       47.67060
N         50.40497       35.08799       45.70154
C         51.77927       35.02769       45.19551
C         52.48076       36.37213       45.41071
O         53.57237       36.57408       44.89694
C         51.77275       34.60766       43.70461
C         51.19937       35.62840       42.76188
O         50.82318       36.83610       43.20820
O         51.11915       35.37915       41.57000
H         49.75830       35.76388       45.26691
H         52.36754       34.25352       45.73349
H         51.20075       33.65929       43.60933
H         52.81648       34.41432       43.37451
N         51.89100       37.34029       46.16896
C         52.39815       38.67973       46.36179
C         52.33282       39.49838       45.09670
O         53.32022       40.13527       44.78434
H         51.02245       37.12921       46.67003
H         53.42327       38.65819       46.79320
H         51.73749       39.19178       47.09545
N         51.17801       39.57528       44.36487
C         50.95334       40.46679       43.22192
C         49.46152       40.37091       42.73036
O         49.28587       39.27129       41.86457
C         51.93159       40.26802       42.00939
C         53.16019       41.18819       41.98940
O         52.34699       38.93306       41.89942
H         50.37826       39.00899       44.68331
H         51.07422       41.50243       43.60874
H         51.41045       40.58881       41.07593
H         51.62012       38.43846       41.44872
H         53.89425       40.99659       42.78307
H         53.70318       41.04441       41.03076
H         52.83972       42.25078       42.04402
N         49.14470       41.58802       41.96075
C         47.72240       41.83179       41.65544
C         47.63733       42.11694       40.16574
O         48.36424       42.96525       39.66921
C         47.14065       43.01710       42.49775
C         47.14581       42.65157       44.00645
C         45.71025       43.37710       42.03354
C         46.72004       43.80104       44.92427
H         49.60742       42.45644       42.31720
H         47.10552       40.93546       41.88241
H         47.78058       43.91275       42.33411
H         48.17263       42.36371       44.31334
H         46.47622       41.78060       44.18407
H         45.69918       43.65983       40.96120
H         45.01832       42.52350       42.18691
H         45.31736       44.26012       42.57445
H         47.39407       44.67247       44.78349
H         45.67214       44.11204       44.74163
H         46.78442       43.46970       45.98203
N         46.72245       41.45703       39.40535
C         46.55021       41.63595       37.96848
C         45.24950       42.36928       37.70692
O         44.55585       42.72355       38.64337
C         46.50262       40.24025       37.28169
C         47.79827       39.45786       37.50302
O         45.40551       39.51646       37.78532
H         46.06940       40.82099       39.87548
H         47.37542       42.24293       37.53655
H         46.37165       40.37158       36.18582
H         45.43981       38.59760       37.41249
H         47.93167       39.25973       38.58444
H         47.74701       38.48333       36.97009
H         48.66617       40.02557       37.10859
N         44.84245       42.60395       36.43050
C         43.51405       43.11575       36.10629
C         42.45784       42.12842       36.59679
O         41.51922       42.53941       37.26614
C         43.37259       43.34919       34.57996
C         44.31564       44.46371       34.10051
O         43.63477       42.16243       33.87513
H         45.47712       42.34692       35.66217
H         43.34885       44.10047       36.60014
H         42.32474       43.67650       34.38515
H         43.35164       42.31376       32.93606
H         44.16627       44.64380       33.01517
H         44.09826       45.40915       34.64178
H         45.37967       44.19465       34.26496
N         42.58371       40.79519       36.32640
C         41.62632       39.75767       36.72582
C         41.43434       39.62028       38.24177
O         40.55705       38.87137       38.64591
C         42.08636       38.41762       36.09260
C         41.16478       37.21492       36.34073
C         41.62476       36.00514       35.52108
C         40.72419       34.79177       35.78027
N         41.13382       33.65505       34.95723
H         43.40857       40.50426       35.77824
H         40.63922       40.02872       36.29119
H         43.10635       38.16251       36.45764
H         42.14366       38.58581       34.99404
H         40.12581       37.47856       36.04699
H         41.18766       36.93388       37.41421
H         42.67325       35.74609       35.78837
H         41.58517       36.26604       34.44074
H         39.66931       35.05308       35.54150
H         40.78199       34.50973       36.85563
H         41.05683       33.90225       33.94364
H         42.11898       33.38399       35.18047
H         40.50414       32.84451       35.15569
N         42.17331       40.32365       39.14111
C         42.00213       40.22222       40.58479
C         41.36650       41.51037       41.07858
O         40.31030       41.43770       41.69209
C         43.35587       39.86078       41.23619
C         43.83984       38.49497       40.69460
C         45.16831       38.04531       41.22902
O         45.28721       36.83131       41.79429
O         46.16420       38.72808       41.07390
H         42.89746       40.96386       38.80715
H         41.29654       39.40395       40.85398
H         43.24111       39.80126       42.33672
H         44.09906       40.65087       41.00789
H         43.93863       38.55233       39.59413
H         43.08055       37.71788       40.93048
N         41.88961       42.72797       40.76089
C         41.22773       43.98483       41.05428
H         40.27433       43.84745       41.60667
H         41.89891       44.63520       41.64972
H         40.99013       44.49786       40.09607
H         42.76587       42.77849       40.23133
Ca        48.34077       37.27262       42.55565
O         47.49754       35.97290       39.60370
H         47.06873       36.47117       38.86349
H         48.30740       35.57213       39.19848
O         50.22706       38.49544       39.25903
H         49.62946       37.74853       39.51457
H         51.12578       38.08728       39.20548

Ca 1.0



