%chk=holoCaM-CaMKII.loop1.water2.frame223.chk
%nprocshared=20
%mem=10GB
%nosave
#b3lyp/svp scf=(tight,noincore,xqc) Test 
#IOP(5/87=12) Density=Current Pop=(MK,readradii) iop(6/33=2) iop(6/42=6)

holoCaM-CaMKII.loop1.water2.frame223 

   0  1 
C         16.20381       38.32075       59.79725
C         14.89279       37.94134       60.41768
O         14.24571       37.03018       59.92338
H         16.89941       37.45802       59.82629
H         16.03067       38.62162       58.74205
H         16.67047       39.17763       60.32842
N         14.43179       38.60645       61.51125
C         13.12368       38.35180       62.10249
C         12.04755       38.73320       61.08561
O         11.90900       39.90770       60.77464
C         13.03361       39.13948       63.43215
C         11.68464       39.17597       64.08198
O         10.99331       38.07583       64.42422
O         11.16645       40.26262       64.28223
H         15.03418       39.33603       61.92469
H         13.04175       37.26997       62.34960
H         13.32588       40.19655       63.23993
H         13.77514       38.71749       64.14121
N         11.29780       37.76225       60.48055
C         10.28934       38.01058       59.44576
C          8.89396       37.55224       59.86195
O          7.96486       37.77578       59.09774
C         10.71655       37.31870       58.13316
C         11.92198       37.99573       57.44491
C         11.65960       39.43216       56.93654
C         10.51722       39.50507       55.90543
N         10.35321       40.86322       55.39013
H         11.47690       36.77981       60.73717
H         10.17262       39.09716       59.26366
H          9.87900       37.29742       57.40861
H         10.96080       36.25628       58.35447
H         12.21463       37.37405       56.57133
H         12.78332       38.02002       58.14072
H         12.59389       39.79486       56.45554
H         11.44248       40.11621       57.78238
H          9.55836       39.19420       56.37110
H         10.73976       38.81801       55.05906
H         11.22800       41.17555       54.91027
H          9.56750       40.87137       54.69957
H         10.12141       41.51868       56.17150
N          8.65356       36.99917       61.08280
C          7.31178       36.78566       61.63159
C          7.02077       37.83346       62.71340
O          5.90425       37.86501       63.21048
C          7.10269       35.31468       62.09847
C          8.08675       34.83433       63.13700
O          8.08262       33.67196       63.50647
O          9.01302       35.69430       63.58367
H          9.45615       36.84394       61.69758
H          6.54764       36.97067       60.84457
H          7.21221       34.66208       61.20447
H          6.06769       35.19012       62.48501
N          7.94542       38.78670       63.05178
C          7.66205       39.94565       63.87916
C          7.32980       39.63295       65.31412
O          6.26975       40.03840       65.76866
H          8.88460       38.77397       62.63266
H          6.83947       40.52754       63.41014
H          8.56046       40.60005       63.88947
N          8.21664       38.96916       66.10637
C          8.01912       38.76011       67.53706
C          9.13727       39.37697       68.38562
O          8.97842       39.38902       69.59841
C          7.81038       37.26191       67.83279
C          8.90552       36.38578       67.29845
O         10.16735       36.54895       67.71643
O          8.65068       35.51277       66.48500
H          9.07231       38.60488       65.67615
H          7.09100       39.27556       67.86772
H          6.85495       36.94683       67.35980
H          7.71417       37.10526       68.92865
N         10.27400       39.91850       67.84753
C         11.28921       40.60514       68.63821
C         12.61759       39.87862       68.68873
O         13.54772       40.44443       69.24789
H         10.44060       39.87626       66.83490
H         10.96335       40.75049       69.69120
H         11.43747       41.61538       68.19975
N         12.77347       38.60561       68.21911
C         14.00733       37.83972       68.38598
C         14.41890       37.13211       67.10460
O         13.67919       37.13280       66.13017
C         13.83738       36.80322       69.52882
C         13.65280       37.47176       70.89977
O         12.78153       35.91590       69.25710
H         11.96307       38.12429       67.81489
H         14.84476       38.51860       68.66206
H         14.76429       36.19873       69.61683
H         11.93055       36.37538       69.47952
H         12.73685       38.09870       70.92329
H         13.56556       36.69134       71.68500
H         14.53200       38.10940       71.13179
N         15.62680       36.50224       67.05864
C         16.14733       35.76743       65.91276
C         16.46788       34.34906       66.37066
O         17.20224       34.19419       67.33813
C         17.42218       36.48184       65.36347
C         17.08896       37.94091       64.94915
C         18.01140       35.70049       64.17003
C         18.31099       38.75210       64.50924
H         16.23785       36.56426       67.88837
H         15.40481       35.73707       65.08416
H         18.18513       36.51269       66.17339
H         16.65509       38.47660       65.81969
H         16.33572       37.94346       64.13066
H         18.28038       34.67301       64.47376
H         17.28335       35.65184       63.33181
H         18.95139       36.15808       63.80485
H         18.76641       38.34317       63.58544
H         18.00095       39.79538       64.29020
H         19.07077       38.77132       65.31946
N         16.00470       33.26626       65.68335
C         16.38140       31.89169       66.00904
C         17.52948       31.46190       65.12517
O         17.95876       32.22626       64.27541
C         15.18108       30.91699       65.86334
C         14.07099       31.20235       66.87774
O         14.68738       30.91393       64.54531
H         15.48667       33.43271       64.81336
H         16.76196       31.83194       67.05259
H         15.51637       29.88228       66.08463
H         14.03500       31.65517       64.45578
H         13.24518       30.47045       66.74249
H         14.46493       31.10525       67.91107
H         13.67841       32.22573       66.73349
N         18.10716       30.24413       65.29617
C         19.24055       29.79551       64.50100
C         18.86429       29.77645       63.02779
O         19.53204       30.42951       62.23809
C         19.71692       28.40625       64.99593
C         20.96953       27.92847       64.25528
O         20.01438       28.49127       66.36761
H         17.73945       29.62415       66.03378
H         20.08368       30.50833       64.65380
H         18.89217       27.67246       64.83373
H         19.87308       27.58776       66.75458
H         20.77410       27.82745       63.16789
H         21.80479       28.64459       64.41186
H         21.27754       26.93587       64.64755
N         17.80089       29.04440       62.59131
C         17.44397       28.93354       61.18067
C         17.07290       30.26005       60.53203
O         17.39084       30.42720       59.36232
C         16.38022       27.84676       60.94511
C         14.98803       28.15152       61.53119
C         14.00588       26.99036       61.28452
C         14.33668       25.73446       62.11547
N         13.41665       24.64164       61.80428
H         17.26533       28.50330       63.28637
H         18.35016       28.55618       60.65344
H         16.78906       26.91438       61.38196
H         16.27045       27.68744       59.84942
H         14.59081       29.05540       61.02077
H         15.03719       28.36529       62.62004
H         13.99808       26.74492       60.19979
H         12.98436       27.32474       61.56810
H         14.26135       25.98700       63.19700
H         15.36714       25.37790       61.91703
H         13.53615       24.35440       60.80529
H         13.63977       23.82312       62.41602
H         12.42762       24.93465       61.97333
N         16.43514       31.25981       61.21329
C         16.17328       32.56517       60.60131
C         17.48548       33.19712       60.17689
O         17.63394       33.51215       59.00431
C         15.39620       33.51402       61.54428
C         13.94062       33.05202       61.72662
C         13.13811       34.02983       62.53920
O         13.46573       34.29433       63.81579
O         12.16724       34.57944       62.04507
H         16.16321       31.09934       62.19493
H         15.54724       32.43212       59.68968
H         15.35881       34.52268       61.07448
H         15.91905       33.60948       62.51957
H         13.90427       32.05430       62.20428
H         13.46791       32.96671       60.72346
N         18.49920       33.36124       61.06988
C         19.80234       33.88404       60.71524
H         20.56958       33.10350       60.90623
H         19.86586       34.17628       59.64607
H         20.02768       34.77145       61.34092
H         18.35900       33.06728       62.04338
Ca        11.04713       35.83100       64.51971
O         10.61042       32.21766       64.72973
H         10.62180       32.15923       63.74183
H         10.14232       33.06835       64.92261
O         11.65810       33.68483       67.00726
H         11.77158       34.62602       67.28312
H         11.68340       33.16948       67.85201

Ca 1.0



