%chk=holoCaM.loop1.water2.frame146.chk
%nprocshared=20
%mem=10GB
%nosave
#b3lyp/svp scf=(tight,noincore,xqc) Test 
#IOP(5/87=12) Density=Current Pop=(MK,readradii) iop(6/33=2) iop(6/42=6)

holoCaM.loop1.water2.frame146 

   0  1 
C        -11.36468       81.20418       22.87567
C        -11.04766       79.74749       22.92768
O        -11.92505       78.96429       22.59615
H        -12.21578       81.41127       23.55913
H        -10.49444       81.81873       23.17873
H        -11.66079       81.46970       21.83902
N         -9.83388       79.29559       23.36582
C         -9.53761       77.87647       23.44957
C         -9.63463       77.45701       24.90571
O         -8.68049       77.60489       25.65668
C         -8.18558       77.52607       22.78495
C         -8.09619       76.05079       22.51384
O         -9.18328       75.28617       22.73612
O         -7.08427       75.57024       22.03648
H         -9.13141       79.96959       23.70538
H        -10.32350       77.33288       22.88500
H         -7.34552       77.87437       23.42539
H         -8.09426       78.03092       21.80218
N        -10.85628       77.10916       25.39841
C        -11.15330       76.95331       26.81862
C        -10.51073       75.72499       27.46379
O        -10.48341       75.66859       28.68481
C        -12.68907       76.93080       26.98638
C        -13.18112       77.19240       28.41199
C        -14.71449       77.24606       28.42621
C        -15.24312       77.73185       29.77827
N        -16.70462       77.78365       29.77389
H        -11.64382       77.10031       24.73534
H        -10.76300       77.87076       27.31436
H        -13.09650       75.97534       26.58588
H        -13.10117       77.76281       26.37047
H        -12.77768       78.17755       28.73415
H        -12.83276       76.41026       29.11754
H        -15.12000       76.23715       28.19011
H        -15.06850       77.95955       27.64918
H        -14.84403       78.75310       29.97246
H        -14.89636       77.05617       30.59034
H        -17.09515       76.82052       29.65773
H        -17.03578       78.17959       30.68277
H        -17.04375       78.39670       28.99656
N         -9.99483       74.69871       26.72363
C         -9.34299       73.52025       27.31221
C         -7.86991       73.42934       26.89746
O         -7.19428       72.51738       27.35327
C        -10.15774       72.22880       27.00744
C        -10.26735       71.90011       25.54646
O         -9.55656       72.62804       24.67933
O        -10.98949       70.99665       25.15797
H        -10.07018       74.75425       25.69890
H         -9.33455       73.60637       28.42038
H        -11.18407       72.38297       27.40770
H         -9.71293       71.35760       27.53536
N         -7.28289       74.38159       26.10695
C         -5.85027       74.45781       25.86567
C         -5.25685       73.39440       24.96546
O         -4.04278       73.41652       24.81509
H         -7.83892       75.16892       25.75260
H         -5.33206       74.43769       26.84944
H         -5.62023       75.43711       25.39146
N         -5.99855       72.44282       24.32600
C         -5.36921       71.39977       23.51045
C         -4.64700       71.93338       22.26431
O         -3.91568       71.16701       21.65386
C         -6.38491       70.29224       23.14973
C         -7.48756       70.72060       22.22593
O         -8.46577       69.85062       21.91623
O         -7.50254       71.83655       21.74072
H         -7.01737       72.42418       24.46588
H         -4.60446       70.91573       24.15856
H         -6.84507       69.92803       24.09379
H         -5.85734       69.44016       22.67182
N         -4.79564       73.22251       21.83408
C         -4.03271       73.81484       20.74228
C         -4.87195       74.32073       19.58021
O         -4.30822       75.02626       18.75410
H         -5.44174       73.84354       22.33162
H         -3.26846       73.11827       20.33479
H         -3.48658       74.68218       21.17180
N         -6.17795       73.96445       19.39089
C         -6.96716       74.39770       18.23291
C         -8.33112       74.95328       18.63985
O         -8.69202       74.91362       19.80674
C         -7.13776       73.22261       17.22819
C         -5.80869       72.79664       16.58953
O         -7.77967       72.12384       17.82254
H         -6.60806       73.30153       20.04607
H         -6.44229       75.21768       17.69430
H         -7.76988       73.55561       16.37896
H         -7.12811       71.66544       18.41481
H         -5.09729       72.42006       17.35315
H         -5.99483       71.99063       15.84764
H         -5.34925       73.65838       16.05969
N         -9.15073       75.47769       17.68465
C        -10.49562       76.00086       17.90829
C        -11.47649       75.10587       17.16565
O        -11.25850       74.80131       16.00015
C        -10.57635       77.47987       17.42255
C         -9.65528       78.42290       18.24594
C        -12.02265       78.01826       17.41183
C        -10.05393       78.60227       19.71780
H         -8.80865       75.49775       16.71140
H        -10.76969       75.97772       18.98349
H        -10.22048       77.50997       16.36854
H         -9.66810       79.42951       17.77383
H         -8.60935       78.05079       18.20443
H        -12.48421       77.97628       18.41861
H        -12.03654       79.06862       17.05009
H        -12.65753       77.42675       16.72069
H         -9.34893       79.30867       20.20344
H        -11.06851       79.03981       19.81312
H        -10.01748       77.64304       20.27083
N        -12.60802       74.67839       17.79084
C        -13.58136       73.76037       17.21270
C        -14.84581       74.49602       16.80238
O        -14.93545       75.70401       16.97259
C        -13.92174       72.65437       18.25387
C        -12.67589       71.88536       18.68137
O        -14.52192       73.24227       19.38130
H        -12.80118       75.03094       18.73406
H        -13.17101       73.28880       16.29249
H        -14.63027       71.92723       17.80318
H        -14.75604       72.51616       20.01628
H        -11.98382       72.57255       19.20791
H        -12.95981       71.07049       19.38053
H        -12.17433       71.43460       17.80030
N        -15.88128       73.79650       16.25854
C        -17.17368       74.37795       15.90534
C        -17.80241       75.03002       17.12168
O        -18.29006       76.14688       17.03003
C        -18.15035       73.29073       15.36824
C        -17.65465       72.62641       14.08103
O        -18.36750       72.29705       16.33994
H        -15.75481       72.78345       16.12872
H        -17.04332       75.14232       15.10672
H        -19.11134       73.80943       15.13309
H        -19.29736       71.96844       16.22526
H        -17.48897       73.38812       13.29212
H        -16.71309       72.06450       14.24815
H        -18.41952       71.90401       13.72421
N        -17.83299       74.35012       18.29729
C        -18.46390       74.83343       19.51688
C        -17.75460       76.08155       20.01527
O        -18.40470       77.09748       20.21852
C        -18.48551       73.70018       20.58010
C        -19.26992       72.47950       20.03711
C        -19.39609       71.31282       21.02003
C        -20.10944       70.13952       20.31886
N        -20.29373       69.00133       21.21535
H        -17.37262       73.42997       18.31621
H        -19.52874       75.08185       19.30754
H        -18.98688       74.07379       21.49959
H        -17.44894       73.39346       20.84436
H        -18.76742       72.07763       19.13607
H        -20.29116       72.80666       19.74391
H        -19.97661       71.63890       21.90967
H        -18.38620       70.98116       21.34686
H        -19.50568       69.81388       19.44063
H        -21.10423       70.47306       19.94741
H        -20.89900       69.27695       22.02186
H        -20.76462       68.23009       20.68775
H        -19.36817       68.65878       21.56022
N        -16.40498       76.07876       20.20241
C        -15.64639       77.23567       20.68399
C        -15.66910       78.41262       19.70760
O        -15.20857       79.48294       20.08202
C        -14.17156       76.84329       20.92891
C        -14.01731       75.71698       21.96918
C        -12.59938       75.23880       22.08122
O        -12.02162       74.78040       21.10967
O        -11.98239       75.24004       23.27289
H        -15.90740       75.20423       19.99649
H        -16.09439       77.56515       21.64760
H        -13.59524       77.72618       21.26916
H        -13.74870       76.52465       19.95936
H        -14.61838       74.83222       21.68902
H        -14.37608       76.07881       22.95680
N        -16.14747       78.29446       18.43739
C        -16.16097       79.39906       17.50322
H        -16.80417       80.21673       17.89104
H        -15.12893       79.77671       17.34215
H        -16.56890       79.06080       16.52586
H        -16.49413       77.39193       18.10136
Ca        -9.66637       73.11863       22.52587
O        -12.09112       71.07752       21.94167
H        -12.26384       71.29163       22.89183
H        -12.07086       70.08812       21.90792
O         -9.80599       71.16328       19.81518
H        -10.31823       70.39443       19.45980
H         -9.85695       71.84888       19.10478

Ca 1.0



