%chk=holoCaM.loop4.water3.frame412.chk
%nprocshared=20
%mem=10GB
%nosave
#b3lyp/svp scf=(tight,noincore,xqc) Test 
#IOP(5/87=12) Density=Current Pop=(MK,readradii) iop(6/33=2) iop(6/42=6)

holoCaM.loop4.water3.frame412 

   -3  1 
C         75.56547       62.49254       49.96209
C         74.54785       62.38049       51.05398
O         73.46770       61.87659       50.78741
H         76.47904       61.93749       50.26064
H         75.17574       62.04010       49.02279
H         75.81386       63.55578       49.77402
N         74.83243       62.80849       52.32165
C         73.90834       62.62896       53.44205
C         74.47603       63.22822       54.72864
O         75.60423       62.89994       55.07200
C         73.68156       61.11461       53.69418
C         72.52010       60.82331       54.59877
O         72.29703       59.55577       54.98857
O         71.73632       61.69961       54.92558
H         75.74977       63.25006       52.48859
H         72.94528       63.11893       53.18261
H         74.61224       60.67986       54.12011
H         73.46086       60.55925       52.76470
N         73.73252       64.05975       55.52075
C         74.21362       64.58237       56.80369
C         73.38154       64.08601       57.99627
O         73.72866       64.44045       59.11470
C         74.32681       66.14363       56.77472
C         72.95758       66.87278       56.71048
C         75.25049       66.57724       55.62050
C         73.07420       68.40110       56.77239
H         72.78295       64.30517       55.21843
H         75.24248       64.20788       56.99542
H         74.81742       66.44641       57.72635
H         72.33351       66.55409       57.57273
H         72.42724       66.61273       55.78026
H         75.49840       67.65542       55.69133
H         76.21121       66.02374       55.66642
H         74.77064       66.38461       54.63652
H         72.06107       68.85584       56.78431
H         73.61440       68.71320       57.69100
H         73.60005       68.80302       55.88188
N         72.27311       63.29325       57.85071
C         71.38968       62.93897       58.96551
C         70.82223       61.50666       58.91525
O         70.05690       61.17084       59.80920
C         70.28245       64.01204       59.07495
C         69.42134       64.19863       57.85852
O         69.56928       63.51977       56.85686
O         68.48185       65.16062       57.87479
H         71.95740       63.06645       56.90500
H         71.94952       63.00260       59.92488
H         70.77635       64.98889       59.27025
H         69.62491       63.78828       59.94192
N         71.16721       60.59354       57.95530
C         70.69453       59.20477       57.94484
C         69.20506       59.00623       57.66948
O         68.75069       57.87371       57.74607
H         71.85992       60.85561       57.24838
H         70.93778       58.75099       58.93032
H         71.24930       58.63310       57.17257
N         68.38027       60.04868       57.38677
C         66.91717       59.95477       57.31916
C         66.30064       59.23797       56.10673
O         65.07953       59.14680       56.08203
C         66.32502       61.37232       57.44409
C         66.77292       62.32950       56.36719
O         67.64818       61.94993       55.40480
O         66.40035       63.48523       56.43486
H         68.80531       60.98244       57.35150
H         66.57652       59.40534       58.22627
H         66.66421       61.79149       58.41879
H         65.21533       61.32050       57.47641
N         67.02480       58.67593       55.09642
C         66.38533       57.93880       54.00357
C         65.73845       58.80418       52.93082
O         64.96914       58.27349       52.14189
H         68.05003       58.68591       55.14747
H         65.63786       57.23403       54.43084
H         67.14095       57.31995       53.47718
N         66.07628       60.11230       52.77315
C         65.54785       60.97242       51.70842
C         66.56352       62.05890       51.33775
O         67.59643       62.13794       51.97738
C         64.17451       61.52855       52.15204
C         64.28244       62.23569       53.51902
C         62.98470       62.76094       54.07013
N         62.99134       63.40745       55.25905
O         61.93262       62.60629       53.46740
H         66.75685       60.50883       53.43062
H         65.42942       60.37831       50.77474
H         63.46455       60.67638       52.24793
H         63.76938       62.22123       51.38235
H         64.99333       63.08187       53.42936
H         64.67046       61.51846       54.27407
H         63.87388       63.54177       55.77371
H         62.12159       63.77776       55.66762
N         66.36560       62.91404       50.29112
C         67.36474       63.91188       49.89474
C         66.84749       65.29751       50.20737
O         65.75838       65.65359       49.77954
C         67.75827       63.78544       48.39300
C         68.79995       64.85632       47.99990
C         68.34690       62.40182       48.08465
H         65.48719       62.85872       49.75328
H         68.30940       63.77071       50.46526
H         66.85622       63.93120       47.75975
H         69.71300       64.77305       48.62934
H         69.09729       64.75054       46.93537
H         68.37884       65.87385       48.11532
H         67.60959       61.60391       48.30556
H         68.60992       62.33546       47.00600
H         69.26784       62.22228       48.68125
N         67.64595       66.16133       50.89470
C         67.30722       67.54820       51.16216
C         68.02712       68.43278       50.16900
O         68.87195       67.95584       49.43526
C         67.70263       67.86575       52.62073
C         67.49802       69.28020       53.07099
N         66.26347       69.82209       53.07240
O         68.45041       69.93354       53.47190
H         68.59505       65.85438       51.14650
H         66.21857       67.70953       51.00731
H         68.77387       67.60125       52.77202
H         67.08013       67.24153       53.27688
H         65.44981       69.28535       52.74226
H         66.12389       70.77796       53.41284
N         67.66712       69.73314       50.04034
C         68.27365       70.66864       49.09764
C         69.76231       70.91351       49.35573
O         70.47442       71.09663       48.37686
C         67.43675       71.98066       48.98815
C         66.92602       72.49598       50.32129
C         65.54149       72.52616       50.58184
C         67.80884       72.88480       51.32977
C         65.06357       72.90814       51.83878
C         67.33687       73.24608       52.59470
C         65.95948       73.25312       52.85524
O         65.48895       73.55974       54.08085
H         66.87450       70.04634       50.61091
H         68.22666       70.21763       48.07861
H         66.54469       71.72742       48.37259
H         67.99807       72.75932       48.42917
H         64.82890       72.23004       49.82185
H         68.86001       72.88214       51.13365
H         63.99793       72.90642       52.03088
H         68.04166       73.50290       53.37482
H         66.07884       73.73552       54.82788
N         70.31974       70.94235       50.60620
C         71.75919       71.15201       50.79926
C         72.55388       69.89388       50.47995
O         73.76386       69.98097       50.32042
C         72.09971       71.61355       52.23664
C         71.49499       72.97636       52.61094
C         71.92431       74.06156       51.66040
O         71.09255       74.67552       51.01105
O         73.23126       74.35029       51.50961
H         69.71733       70.80958       51.42925
H         72.09055       71.94976       50.09824
H         73.20375       71.70361       52.33545
H         71.75348       70.84911       52.96730
H         71.82331       73.25213       53.63497
H         70.39513       72.89929       52.63857
N         71.93822       68.68298       50.40964
C         72.60864       67.43189       50.08685
C         72.61133       67.24395       48.57669
O         73.55100       66.67415       48.04035
C         71.86313       66.24635       50.77005
C         71.74962       66.45773       52.29845
C         70.93527       65.44769       53.07852
O         70.90956       65.53917       54.29084
O         70.15544       64.51399       52.51096
H         70.93213       68.63297       50.60591
H         73.65266       67.44101       50.47947
H         72.42013       65.30277       50.56863
H         70.84908       66.15677       50.33206
H         71.26034       67.43021       52.51038
H         72.77865       66.49748       52.71372
N         71.57309       67.71632       47.82813
C         71.44382       67.52596       46.40410
H         70.54042       68.06955       46.04535
H         72.33133       67.92651       45.87561
H         71.30705       66.44737       46.18113
H         70.82676       68.24775       48.28063
Ca        68.92400       63.24533       53.98966
O         69.21948       60.19576       53.38876
H         69.74403       59.43936       53.74589
H         68.96396       59.91076       52.47523
O         70.67886       61.90664       51.91954
H         70.34782       61.46152       51.10173
H         71.28498       62.60958       51.58579
O         67.48407       65.44013       54.63054
H         66.72227       64.83173       54.45956
H         67.57007       65.50248       55.61073

Ca 1.0



