%chk=holoCaM.loop4.water3.frame407.chk
%nprocshared=20
%mem=10GB
%nosave
#b3lyp/svp scf=(tight,noincore,xqc) Test 
#IOP(5/87=12) Density=Current Pop=(MK,readradii) iop(6/33=2) iop(6/42=6)

holoCaM.loop4.water3.frame407 

   -3  1 
C         86.67506       65.62776        4.27965
C         85.73581       65.15013        5.34268
O         84.53642       65.18430        5.11130
H         87.73306       65.52991        4.59808
H         86.52085       65.02364        3.36075
H         86.46281       66.69370        4.05368
N         86.20368       64.70491        6.54512
C         85.31804       64.22397        7.59909
C         86.10140       64.02722        8.89288
O         87.10010       63.32064        8.89698
C         84.62713       62.90768        7.17138
C         83.46829       62.53750        8.05469
O         82.86036       61.50280        7.83825
O         83.04272       63.36275        9.03116
H         87.22018       64.73858        6.71886
H         84.54005       65.00225        7.76253
H         85.37586       62.08650        7.15218
H         84.19990       62.99876        6.15299
N         85.67850       64.62839       10.03669
C         86.38729       64.59415       11.31118
C         85.72472       63.60401       12.26532
O         86.45656       62.92330       12.97152
C         86.47302       66.05559       11.87325
C         87.40085       66.90621       10.95788
C         86.96438       66.09800       13.33399
C         87.43604       68.40112       11.29764
H         84.79298       65.15355       10.00656
H         87.43124       64.22515       11.18297
H         85.44813       66.49038       11.86668
H         87.05889       66.82181        9.90629
H         88.43791       66.50576       11.00331
H         86.95865       67.13590       13.72533
H         86.27735       65.52743       13.99287
H         87.98862       65.68080       13.42388
H         86.41898       68.83921       11.23633
H         87.85343       68.58700       12.30683
H         88.08874       68.92784       10.56868
N         84.36969       63.47396       12.36423
C         83.72087       62.61876       13.36520
C         82.82519       61.51237       12.78330
O         82.20441       60.81076       13.57032
C         82.98098       63.52171       14.38098
C         81.87893       64.37183       13.82102
O         81.57228       64.30505       12.64810
O         81.22469       65.22892       14.62614
H         83.77951       64.04381       11.74427
H         84.48382       62.08138       13.96901
H         83.73202       64.20744       14.83041
H         82.55688       62.89743       15.19503
N         82.75155       61.23991       11.44557
C         81.98328       60.12191       10.88846
C         80.46575       60.24874       10.97640
O         79.78441       59.31971       10.56782
H         83.33527       61.78158       10.79996
H         82.30027       59.18603       11.39764
H         82.23198       60.01090        9.81323
N         79.86491       61.35255       11.49115
C         78.41980       61.51042       11.66355
C         77.59966       61.43388       10.37210
O         76.61504       60.70747       10.36458
C         78.12078       62.79799       12.47740
C         78.74305       64.08082       11.98439
O         79.42246       64.13452       10.82255
O         78.66708       65.07767       12.68182
H         80.47101       62.11027       11.82342
H         78.05082       60.68566       12.31523
H         78.55638       62.63083       13.48741
H         77.02412       62.92992       12.60284
N         77.90551       62.16469        9.26522
C         77.06952       62.24775        8.07530
C         76.63337       63.68005        7.78531
O         75.98748       63.89228        6.77080
H         78.77592       62.69642        9.24856
H         76.15810       61.61935        8.16640
H         77.65809       61.87489        7.20977
N         76.95922       64.71209        8.62066
C         76.63046       66.11575        8.38971
C         77.92224       66.90211        8.20812
O         78.98957       66.31411        8.30904
C         75.82580       66.64117        9.59862
C         74.47507       65.91796        9.73178
C         73.72792       66.35647       10.96594
N         73.36059       65.45372       11.90717
O         73.44033       67.53493       11.11382
H         77.48503       64.51963        9.47660
H         76.03452       66.23995        7.45969
H         75.63418       67.73044        9.48991
H         76.42543       66.48581       10.52460
H         74.63891       64.82007        9.77768
H         73.85565       66.13852        8.83616
H         73.58161       64.45280       11.79835
H         72.84333       65.75299       12.74706
N         77.90310       68.23441        7.89391
C         79.12701       68.99922        7.65858
C         79.22387       70.15143        8.64510
O         78.43626       71.08386        8.57272
C         79.19069       69.48339        6.18198
C         80.44417       70.33421        5.91058
C         79.19165       68.28175        5.22213
H         76.99687       68.71317        7.78545
H         80.01170       68.35227        7.81473
H         78.29603       70.10726        5.96203
H         80.46737       70.65756        4.84799
H         80.43661       71.25300        6.52956
H         81.36861       69.75833        6.12929
H         80.08078       67.64116        5.40447
H         78.27712       67.66675        5.35254
H         79.21917       68.62919        4.16743
N         80.19447       70.13538        9.60442
C         80.42931       71.22660       10.54886
C         81.06655       72.41178        9.83363
O         81.43026       72.29579        8.67649
C         81.35669       70.69231       11.67552
C         81.69687       71.62023       12.80949
N         80.72841       72.15292       13.58656
O         82.86866       71.85061       13.06492
H         80.78599       69.29440        9.67369
H         79.45660       71.52344       10.99908
H         82.29998       70.31927       11.21786
H         80.83882       69.84781       12.15393
H         79.73476       71.95548       13.40459
H         80.97834       72.75581       14.38244
N         81.23729       73.59352       10.47930
C         81.96071       74.73848        9.92364
C         83.42388       74.39788        9.67261
O         83.92616       74.68495        8.59508
C         81.77989       75.99230       10.83196
C         81.97380       75.77267       12.32456
C         80.83847       75.74961       13.15801
C         83.23908       75.57851       12.90455
C         80.95991       75.49874       14.52456
C         83.35881       75.31735       14.27484
C         82.21659       75.26827       15.08713
O         82.31122       74.99731       16.40431
H         80.83689       73.67046       11.42162
H         81.51754       75.02864        8.94345
H         80.71954       76.29060       10.67905
H         82.39310       76.84656       10.47202
H         79.84851       75.90142       12.74584
H         84.13546       75.61983       12.30359
H         80.07117       75.46525       15.14211
H         84.33860       75.14745       14.70306
H         83.15757       74.80612       16.83209
N         84.16002       73.76881       10.62518
C         85.58461       73.47216       10.51704
C         85.86067       72.59243        9.31053
O         86.73465       72.91838        8.51964
C         86.06117       72.83176       11.84288
C         87.58786       72.73094       11.95573
C         87.98378       72.26804       13.33141
O         88.63379       71.24575       13.47616
O         87.63657       72.99359       14.41359
H         83.67441       73.49440       11.48617
H         86.13624       74.43272       10.40697
H         85.59217       71.83319       11.98952
H         85.72044       73.49765       12.66766
H         88.03830       73.73479       11.79637
H         87.98223       72.03577       11.18407
N         85.09408       71.49193        9.07876
C         85.24708       70.62595        7.91039
C         85.05126       71.41953        6.62684
O         85.94294       71.43942        5.79020
C         84.19890       69.49288        7.92894
C         84.27985       68.57801        9.16113
C         83.13250       67.61305        9.19669
O         82.87870       66.91957       10.31498
O         82.34158       67.54721        8.27298
H         84.34206       71.29550        9.75421
H         86.26226       70.16904        7.91863
H         84.30981       68.86842        7.01352
H         83.18638       69.95277        7.91779
H         84.20330       69.17992       10.08548
H         85.23915       68.02658        9.17839
N         83.88654       72.08837        6.40603
C         83.60751       72.82159        5.19329
H         82.59583       73.27938        5.26032
H         84.35499       73.62885        5.05210
H         83.62132       72.13137        4.32378
H         83.16002       72.07324        7.12660
Ca        81.12977       65.50017       10.28132
O         81.57324       65.60028        6.60210
H         81.32636       65.43159        5.66014
H         82.55422       65.71688        6.58476
O         80.51037       67.58534       11.82878
H         81.08032       67.23252       12.55692
H         79.59920       67.26180       12.02539
O         80.33130       63.33465        7.42630
H         79.75432       63.46750        6.63331
H         80.38827       62.35282        7.53142

Ca 1.0



