%chk=holoCaM-CaMKII.loop1.water2.frame369.chk
%nprocshared=20
%mem=10GB
%nosave
#b3lyp/svp scf=(tight,noincore,xqc) Test 
#IOP(5/87=12) Density=Current Pop=(MK,readradii) iop(6/33=2) iop(6/42=6)

holoCaM-CaMKII.loop1.water2.frame369 

   0  1 
C         35.02166       75.64231       38.84398
C         35.32288       76.78659       39.75704
O         34.79697       77.87080       39.56433
H         34.30546       75.94658       38.05340
H         35.96478       75.29664       38.37041
H         34.58379       74.80993       39.43463
N         36.17802       76.60077       40.79300
C         36.53259       77.64497       41.74331
C         37.23386       78.78648       41.00103
O         38.27425       78.54491       40.40550
C         37.42692       76.99464       42.82435
C         37.75913       77.83416       44.00621
O         37.30477       78.95385       44.14431
O         38.55603       77.31155       44.95066
H         36.58305       75.65763       40.91106
H         35.59894       78.00584       42.23336
H         38.37503       76.65345       42.35724
H         36.90004       76.10340       43.23344
N         36.70111       80.04663       40.97135
C         37.26497       81.16098       40.20167
C         37.95876       82.19644       41.07629
O         38.61043       83.05656       40.49903
C         36.16115       81.84232       39.34834
C         35.70932       81.02950       38.12064
C         36.74621       81.11033       36.97998
C         36.30433       80.39560       35.69236
N         36.29764       78.94055       35.84191
H         35.84489       80.22257       41.50775
H         38.07946       80.79253       39.54409
H         36.49702       82.83436       38.97259
H         35.29035       82.03503       40.01347
H         34.77282       81.48951       37.73395
H         35.48281       79.98907       38.41686
H         37.73291       80.71393       37.29482
H         36.87470       82.18600       36.72441
H         37.02561       80.65995       34.88662
H         35.30003       80.75682       35.37633
H         37.25552       78.60768       36.09938
H         35.60890       78.64130       36.56692
H         36.03077       78.50866       34.92768
N         37.93628       82.16614       42.44177
C         38.79104       83.03369       43.26083
C         39.77870       82.21492       44.08106
O         40.58024       82.80702       44.79006
C         37.94548       84.00195       44.11553
C         37.07037       83.37332       45.16110
O         36.13709       84.01528       45.61576
O         37.23175       82.09848       45.55019
H         37.33825       81.47820       42.91985
H         39.41013       83.68484       42.60721
H         37.28982       84.54874       43.40260
H         38.58864       84.75637       44.61751
N         39.80165       80.85044       44.01816
C         40.74040       80.02525       44.74704
C         40.63036       80.21607       46.23877
O         41.63459       80.54826       46.85137
H         39.15144       80.34756       43.40368
H         41.77190       80.25481       44.40323
H         40.54253       78.95732       44.51071
N         39.45274       79.99690       46.89584
C         39.32946       80.08734       48.35311
C         39.03927       78.73132       48.99503
O         39.08402       78.64677       50.21467
C         38.29939       81.16587       48.76630
C         36.86760       80.91914       48.35750
O         36.54523       79.93568       47.71468
O         35.92241       81.81182       48.70688
H         38.62782       79.73225       46.33921
H         40.30390       80.40793       48.78035
H         38.61507       82.13974       48.33364
H         38.31934       81.26210       49.87311
N         38.75935       77.62642       48.24636
C         38.57717       76.28730       48.77655
C         37.17838       75.74957       48.55168
O         36.97188       74.57369       48.80803
H         38.68284       77.71402       47.23230
H         38.79786       76.23315       49.86346
H         39.30179       75.62738       48.25137
N         36.15454       76.55461       48.14009
C         34.77977       76.09112       47.97522
C         34.21359       76.48102       46.62027
O         34.82035       77.23678       45.87681
C         33.88599       76.65042       49.11482
C         34.09467       75.88897       50.43042
O         34.08595       78.03230       49.29170
H         36.33292       77.55301       47.99494
H         34.73808       74.98050       48.00839
H         32.81470       76.49271       48.86544
H         34.92663       78.16146       49.80743
H         33.42969       76.30946       51.21460
H         33.82315       74.82057       50.28524
H         35.14767       75.95025       50.77321
N         33.02804       75.92290       46.23794
C         32.35513       76.16894       44.97057
C         30.92788       76.60843       45.27593
O         30.23638       75.93608       46.02626
C         32.38048       74.87690       44.09872
C         33.85008       74.45516       43.82028
C         31.62723       75.10689       42.76963
C         33.98374       73.11178       43.10055
H         32.58885       75.23955       46.87287
H         32.87698       76.95843       44.38479
H         31.87288       74.06094       44.65949
H         34.39075       74.34264       44.78311
H         34.36512       75.24296       43.22635
H         30.57155       75.37867       42.95955
H         32.10634       75.91974       42.18128
H         31.59666       74.18886       42.15142
H         33.53653       73.13708       42.08750
H         35.06021       72.86559       42.98298
H         33.50173       72.31009       43.69956
N         30.40921       77.70310       44.65931
C         29.04037       78.17495       44.82360
C         28.24202       77.77553       43.59707
O         28.80106       77.19174       42.68625
C         29.02791       79.71680       45.01495
C         29.81933       80.15137       46.25074
O         29.57292       80.33646       43.87845
H         30.98030       78.16561       43.95449
H         28.56131       77.68703       45.69977
H         27.97144       80.04629       45.14499
H         29.24019       81.27184       43.86104
H         29.38781       79.69733       47.16626
H         30.88292       79.85104       46.15729
H         29.78027       81.25787       46.35120
N         26.90974       78.02866       43.51637
C         26.11415       77.67501       42.34108
C         26.58032       78.45007       41.11659
O         26.69118       77.86596       40.04781
C         24.60553       77.90380       42.59624
C         24.08858       76.95893       43.69363
O         24.36316       79.24118       42.94938
H         26.45112       78.48299       44.31936
H         26.22560       76.58819       42.12464
H         24.06297       77.65953       41.65262
H         23.38197       79.38016       42.88558
H         22.99613       77.09629       43.83214
H         24.26862       75.90139       43.40167
H         24.59150       77.14763       44.66455
N         26.87080       79.77552       41.20739
C         27.30345       80.59679       40.07686
C         28.62822       80.10712       39.51632
O         28.71729       79.86557       38.32088
C         27.37314       82.08172       40.49585
C         25.96031       82.56834       40.87798
C         25.89613       84.06113       41.19244
C         24.43966       84.46054       41.48213
N         24.32155       85.89467       41.72977
H         26.78477       80.21715       42.13539
H         26.54531       80.53708       39.26420
H         27.72869       82.68024       39.62808
H         28.08471       82.22857       41.33939
H         25.57963       82.01086       41.75960
H         25.28139       82.36755       40.02027
H         26.26476       84.63376       40.31436
H         26.53631       84.29211       42.07197
H         24.06449       83.89929       42.36783
H         23.80277       84.19336       40.60845
H         24.65036       86.42854       40.89268
H         23.31675       86.12664       41.90400
H         24.88510       86.16205       42.56857
N         29.68003       79.87551       40.34565
C         30.96175       79.30815       39.91753
C         30.74604       78.00136       39.16841
O         31.36793       77.80373       38.13397
C         31.87144       79.08823       41.14679
C         32.24691       80.43653       41.79070
C         33.06593       80.30586       43.03560
O         34.24236       80.92580       43.09572
O         32.64900       79.73085       44.02285
H         29.52465       80.05000       41.34741
H         31.48727       80.00997       39.23098
H         32.80478       78.56969       40.85065
H         31.33913       78.43322       41.85921
H         31.34829       81.01864       42.06204
H         32.82463       81.03008       41.04744
N         29.81245       77.10621       39.59168
C         29.47915       75.88374       38.89221
H         28.41809       75.93312       38.56412
H         30.11420       75.72020       37.99766
H         29.59744       75.02229       39.58112
H         29.26511       77.32414       40.42725
Ca        35.52489       80.85938       44.90366
O         32.96907       80.33158       47.87438
H         32.14356       80.12939       48.38283
H         33.16467       79.49870       47.37563
O         33.07205       82.63645       45.62701
H         32.27613       82.49347       45.05577
H         32.70447       82.76777       46.53666

Ca 1.0



