%chk=holoCaM.loop1.water2.frame306.chk
%nprocshared=20
%mem=10GB
%nosave
#b3lyp/svp scf=(tight,noincore,xqc) Test 
#IOP(5/87=12) Density=Current Pop=(MK,readradii) iop(6/33=2) iop(6/42=6)

holoCaM.loop1.water2.frame306 

   0  1 
C         31.82203       41.24493       46.06124
C         31.60822       40.85385       44.62772
O         31.19319       39.73242       44.37422
H         32.24970       42.26719       46.14213
H         30.85899       41.21767       46.61082
H         32.53489       40.53509       46.53169
N         31.88285       41.73546       43.62755
C         31.76225       41.40415       42.21293
C         32.74033       40.28709       41.87300
O         33.92206       40.41766       42.15964
C         32.01576       42.66439       41.37046
C         31.91120       42.39196       39.90358
O         30.77662       41.89599       39.37880
O         32.85907       42.63259       39.17824
H         32.20440       42.68132       43.88710
H         30.71645       41.08003       42.00347
H         33.02183       43.07792       41.59967
H         31.25210       43.42911       41.63443
N         32.28790       39.14263       41.28822
C         33.08594       37.93957       41.08425
C         33.26097       37.58877       39.60646
O         34.09262       36.74459       39.30530
C         32.37266       36.79684       41.85294
C         33.11710       35.45807       41.95280
C         34.42864       35.60428       42.73049
C         35.11261       34.25307       42.94440
N         36.35874       34.42794       43.68924
H         31.30593       39.10964       41.02193
H         34.09631       38.11935       41.50197
H         31.38383       36.61291       41.37465
H         32.17276       37.14174       42.89217
H         33.29974       35.02644       40.94690
H         32.45524       34.75266       42.50355
H         34.21286       36.05596       43.72406
H         35.12301       36.26672       42.17458
H         35.33227       33.78552       41.95909
H         34.43473       33.57809       43.51366
H         37.01066       35.04768       43.15494
H         36.16071       34.85248       44.62486
H         36.81148       33.49650       43.82753
N         32.50749       38.17480       38.63273
C         32.66098       37.91522       37.20294
C         32.85226       39.21580       36.41556
O         32.81579       39.17768       35.19346
C         31.53295       36.99473       36.66473
C         30.10930       37.37909       36.94477
O         29.20830       36.68407       36.50332
O         29.80450       38.42479       37.72473
H         31.77840       38.84283       38.90608
H         33.58152       37.32327       37.00345
H         31.66922       35.98786       37.11687
H         31.66520       36.88189       35.56639
N         33.21123       40.37459       37.04533
C         33.63170       41.58064       36.34503
C         32.52459       42.43999       35.76519
O         32.86357       43.48916       35.23465
H         33.34865       40.36808       38.06507
H         34.37127       41.31526       35.55871
H         34.16829       42.22727       37.07149
N         31.20014       42.10968       35.82105
C         30.16557       42.97878       35.25040
C         29.87302       44.23921       36.08223
O         29.04011       45.02642       35.65407
C         28.88881       42.20056       34.82950
C         28.07145       41.44284       35.87376
O         28.71952       40.30258       36.33532
O         27.76139       42.22884       36.97613
H         30.93450       41.20570       36.22855
H         30.54109       43.34873       34.26915
H         29.16578       41.46232       34.04649
H         28.19729       42.92656       34.35060
N         30.55466       44.54492       37.22692
C         30.38596       45.80093       37.95365
C         29.10996       45.91517       38.76787
O         28.94747       46.93566       39.42355
H         31.29727       43.91864       37.55656
H         30.47338       46.65397       37.24535
H         31.21845       45.89242       38.68518
N         28.18285       44.91948       38.81678
C         27.00345       44.94100       39.67809
C         27.02342       43.75331       40.62865
O         27.88177       42.88598       40.52413
C         25.69298       44.96625       38.84730
C         25.43175       46.33483       38.20472
O         25.68208       43.94733       37.88249
H         28.33805       44.08069       38.25390
H         27.01215       45.84440       40.32779
H         24.82524       44.79946       39.52043
H         26.22321       44.25366       37.10712
H         26.25039       46.61974       37.51256
H         24.47391       46.30104       37.64141
H         25.33828       47.10826       38.99707
N         26.12202       43.71106       41.64647
C         26.08321       42.69773       42.69243
C         24.68809       42.07294       42.72161
O         23.69703       42.78703       42.79020
C         26.55514       43.36251       44.02449
C         28.09464       43.60754       43.91234
C         26.23238       42.49959       45.25474
C         28.74143       44.32288       45.09610
H         25.45452       44.49411       41.73460
H         26.80407       41.87663       42.49087
H         26.01770       44.32773       44.15843
H         28.30979       44.22364       43.01443
H         28.61369       42.62959       43.78412
H         26.75337       41.52755       45.20330
H         26.53295       43.01873       46.18731
H         25.13902       42.32771       45.33483
H         28.29186       45.32763       45.23087
H         28.64836       43.73438       46.03039
H         29.82802       44.44313       44.89036
N         24.56345       40.71440       42.68678
C         23.31765       39.95993       42.63184
C         23.01780       39.33882       43.98905
O         23.73600       39.60129       44.94284
C         23.43454       38.84607       41.54577
C         23.77571       39.40397       40.16000
O         24.35503       37.85202       41.93928
H         25.41608       40.15726       42.71372
H         22.46893       40.63036       42.37324
H         22.45652       38.33951       41.42377
H         25.25921       38.10171       41.62259
H         22.99763       40.12187       39.82892
H         24.75902       39.91705       40.18314
H         23.83054       38.56975       39.42756
N         21.96178       38.49001       44.13989
C         21.60045       37.84431       45.40026
C         22.76280       37.05038       45.98105
O         23.09535       37.28163       47.13459
C         20.35072       36.94259       45.23151
C         19.10535       37.76511       44.86613
O         20.58318       35.96376       44.25098
H         21.38787       38.28612       43.31082
H         21.33331       38.63044       46.14298
H         20.15777       36.45297       46.21491
H         19.88628       35.26647       44.36781
H         18.91136       38.53104       45.64684
H         19.21964       38.27548       43.88801
H         18.21943       37.09905       44.80449
N         23.43834       36.11509       45.25187
C         24.58217       35.37914       45.79061
C         25.69595       36.33263       46.18935
O         26.17088       36.25848       47.31439
C         25.10949       34.34058       44.76704
C         26.27892       33.51796       45.35092
C         26.71018       32.36990       44.42547
C         27.82787       31.50103       45.03836
N         29.10074       32.21649       45.15743
H         23.14393       35.93641       44.27973
H         24.25115       34.80557       46.68556
H         25.43812       34.83966       43.82814
H         24.27399       33.64959       44.51987
H         25.95705       33.07592       46.31907
H         27.13749       34.19596       45.53432
H         27.03782       32.76119       43.43805
H         25.82789       31.71259       44.26466
H         27.98378       30.61723       44.38105
H         27.50995       31.12579       46.03703
H         29.01841       33.03376       45.80141
H         29.81862       31.56563       45.55113
H         29.42121       32.53457       44.21403
N         26.17174       37.24345       45.29671
C         27.31956       38.11240       45.56565
C         27.05845       39.10364       46.70235
O         27.99573       39.77519       47.11168
C         27.71654       38.89827       44.29104
C         27.99678       37.98608       43.07657
C         28.20747       38.74913       41.80061
O         27.29199       39.62274       41.35057
O         29.16432       38.49535       41.10066
H         25.70373       37.28277       44.38172
H         28.17497       37.46131       45.85190
H         28.60416       39.53538       44.48966
H         26.87883       39.56696       44.05830
H         27.13901       37.32629       42.86953
H         28.87360       37.33695       43.28903
N         25.81969       39.27378       47.24709
C         25.55377       40.20668       48.31943
H         24.47187       40.18353       48.57682
H         26.13686       39.92541       49.22086
H         25.81743       41.23758       48.00500
H         25.02189       38.74285       46.88917
Ca        28.36310       40.70456       38.54504
O         25.39727       40.80539       37.88577
H         24.70702       40.17160       37.57109
H         25.28913       41.58405       37.28970
O         26.44602       38.03296       38.28125
H         25.91878       38.01561       37.44335
H         27.17646       37.38481       38.12536

Ca 1.0



