%chk=holoCaM-CaMKII.loop4.water2.frame148.chk
%nprocshared=20
%mem=10GB
%nosave
#b3lyp/svp scf=(tight,noincore,xqc) Test 
#IOP(5/87=12) Density=Current Pop=(MK,readradii) iop(6/33=2) iop(6/42=6)

holoCaM-CaMKII.loop4.water2.frame148 

   -3  1 
C         92.46105       -4.87403       68.46612
C         92.76289       -5.57587       69.75256
O         93.62928       -6.43947       69.76314
H         91.66284       -4.11422       68.59943
H         93.37871       -4.36513       68.10393
H         92.12755       -5.61597       67.71184
N         92.09838       -5.24394       70.89396
C         92.39363       -5.87614       72.16713
C         92.05083       -7.35537       72.11039
O         90.89813       -7.70873       71.90201
C         91.64521       -5.16859       73.30529
C         92.01471       -5.70613       74.65077
O         91.49382       -5.13569       75.74170
O         92.78990       -6.63965       74.77106
H         91.39162       -4.49280       70.85992
H         93.48114       -5.73559       72.36827
H         90.54605       -5.25532       73.16627
H         91.92155       -4.09171       73.29341
N         93.04261       -8.27268       72.25830
C         92.83400       -9.70904       72.14156
C         92.19315      -10.21261       73.43842
O         91.12763      -10.81073       73.41513
C         94.19434      -10.45583       71.86353
C         95.02213       -9.78642       70.72047
C         93.91654      -11.93420       71.52837
C         96.40457      -10.41170       70.50901
H         93.99136       -7.91613       72.42421
H         92.18836       -9.90137       71.25410
H         94.82202      -10.42128       72.77616
H         95.23850       -8.73026       70.96682
H         94.45461       -9.79728       69.76654
H         93.34308      -12.42663       72.33931
H         93.33689      -12.00917       70.58256
H         94.85856      -12.50628       71.41091
H         96.33237      -11.44762       70.12576
H         96.96893       -9.81364       69.76144
H         96.97926      -10.40915       71.46002
N         92.86466      -10.01717       74.60950
C         92.50204      -10.55464       75.92676
C         91.33153       -9.88206       76.63804
O         90.91627      -10.40577       77.66390
C         93.74315      -10.50121       76.85768
C         94.44017       -9.14595       76.84143
O         95.58987       -9.09105       76.44101
O         93.78890       -7.99555       77.13925
H         93.76458       -9.53147       74.51821
H         92.22275      -11.62492       75.79668
H         94.46703      -11.25825       76.47776
H         93.47283      -10.80846       77.89080
N         90.76350       -8.73042       76.20358
C         89.64206       -8.09816       76.87931
C         89.90681       -7.68178       78.31867
O         89.12899       -8.06477       79.18147
H         91.11319       -8.28987       75.34564
H         88.76569       -8.78257       76.85224
H         89.36480       -7.18020       76.31717
N         90.91038       -6.81178       78.63357
C         90.98684       -6.11912       79.92499
C         90.65740       -4.63359       79.74051
O         90.66903       -3.89690       80.71646
C         92.34301       -6.35819       80.64144
C         93.57426       -5.80480       79.98078
O         93.50509       -5.17581       78.94541
O         94.77589       -5.98408       80.56086
H         91.56628       -6.53377       77.88981
H         90.21304       -6.51284       80.61848
H         92.48326       -7.45134       80.77294
H         92.29229       -5.89541       81.65142
N         90.33097       -4.13544       78.50987
C         89.98220       -2.76234       78.21963
C         91.01110       -2.10447       77.32314
O         90.70038       -1.05399       76.77977
H         90.29902       -4.75317       77.69677
H         89.86641       -2.14484       79.13441
H         88.99898       -2.78081       77.69813
N         92.28490       -2.59752       77.19945
C         93.33463       -1.91285       76.45842
C         94.10017       -2.85688       75.48258
O         95.09022       -3.60964       76.15746
C         94.31019       -1.23115       77.44842
C         93.64266       -0.06558       78.19079
C         94.62031        0.63210       79.09827
N         95.16121       -0.01045       80.15887
O         94.92197        1.79562       78.87748
H         92.55305       -3.42865       77.73103
H         92.87615       -1.11735       75.82886
H         95.17670       -0.80917       76.89838
H         94.69860       -1.98535       78.16690
H         92.77704       -0.41623       78.79073
H         93.27401        0.66041       77.43179
H         94.90752       -0.98625       80.37032
H         95.82765        0.47435       80.77791
N         94.69075       -2.00904       74.41950
C         95.67802       -2.59787       73.50696
C         97.09246       -2.33727       74.02447
O         97.51396       -1.18934       74.07688
C         95.49066       -1.93801       72.10489
C         96.52956       -2.40851       71.07773
C         94.08430       -2.20703       71.55093
H         94.98010       -1.05019       74.72146
H         95.49184       -3.69181       73.41235
H         95.60613       -0.83515       72.21263
H         96.47085       -3.50576       70.92838
H         96.36174       -1.90201       70.10307
H         97.54876       -2.13118       71.40369
H         93.30395       -1.82053       72.23913
H         93.95364       -1.69452       70.57330
H         93.93186       -3.29530       71.40557
N         97.88501       -3.37209       74.41273
C         99.28722       -3.22606       74.80355
C        100.13815       -2.95074       73.56352
O         99.59918       -2.96323       72.46982
C         99.71617       -4.54423       75.50564
C        101.12363       -4.58263       76.04194
N        101.55182       -3.67624       76.94999
O        101.88397       -5.46076       75.66458
H         97.46948       -4.31033       74.42059
H         99.37674       -2.39235       75.53397
H         99.57737       -5.39038       74.79721
H         99.03602       -4.71019       76.36782
H        100.92781       -2.93111       77.28936
H        102.51742       -3.71768       77.30878
N        101.47659       -2.71775       73.63745
C        102.33928       -2.64524       72.45726
C        102.32771       -3.98255       71.72399
O        102.07998       -4.00313       70.52741
C        103.78005       -2.27940       72.87649
C        104.76236       -2.34689       71.72549
C        104.59913       -1.55664       70.57300
C        105.85618       -3.22617       71.80095
C        105.51176       -1.65445       69.51550
C        106.76717       -3.31818       70.74710
C        106.59707       -2.53415       69.59848
O        107.46750       -2.61919       68.57215
H        101.91050       -2.62706       74.56692
H        101.97909       -1.84564       71.77052
H        104.10705       -2.97678       73.67856
H        103.78175       -1.25307       73.30412
H        103.76530       -0.87181       70.48666
H        106.00489       -3.84550       72.67668
H        105.37480       -1.04765       68.62895
H        107.60291       -4.00203       70.82491
H        108.22859       -3.21737       68.59245
N        102.57824       -5.14202       72.40041
C        102.61169       -6.46896       71.77610
C        101.28458       -6.88972       71.13653
O        101.26093       -7.94251       70.51193
C        103.01909       -7.54912       72.80740
C        104.42367       -7.32982       73.39457
C        104.77327       -8.42761       74.35879
O        105.03817       -8.13618       75.64668
O        104.82668       -9.58717       73.98000
H        102.77168       -5.06233       73.40511
H        103.37853       -6.44842       70.97036
H        103.01793       -8.54123       72.30307
H        102.26809       -7.57579       73.62881
H        104.47645       -6.36085       73.93177
H        105.17544       -7.31657       72.57657
N        100.15819       -6.12766       71.21254
C         98.90049       -6.45829       70.55662
C         98.69507       -5.54071       69.36187
O         98.37349       -6.03657       68.29122
C         97.73238       -6.38668       71.56011
C         97.92795       -7.39682       72.70171
C         96.72921       -7.46223       73.60045
O         96.14394       -8.51924       73.75159
O         96.29696       -6.37246       74.25504
H        100.17865       -5.25171       71.74127
H         98.91289       -7.49789       70.15728
H         96.79237       -6.63408       71.01857
H         97.63740       -5.36134       71.98041
H         98.81876       -7.12143       73.30331
H         98.10023       -8.40665       72.27105
N         98.93849       -4.20355       69.44164
C         98.83359       -3.32152       68.30118
H         99.15215       -2.29583       68.58911
H         99.50053       -3.67487       67.48525
H         97.78464       -3.28607       67.94380
H         99.25511       -3.79443       70.32284
Ca        94.55741       -5.86067       76.58209
O         97.03036       -4.39275       78.16879
H         96.52201       -3.63930       78.55967
H         96.65179       -5.19570       78.60559
O         97.50262       -7.35083       77.37709
H         97.30874       -8.02582       78.07579
H         98.42601       -7.55149       77.08461

Ca 1.0



