%chk=holoCaM-CaMKII.loop3.water2.frame5.chk
%nprocshared=20
%mem=10GB
%nosave
#b3lyp/svp scf=(tight,noincore,xqc) Test 
#IOP(5/87=12) Density=Current Pop=(MK,readradii) iop(6/33=2) iop(6/42=6)

holoCaM-CaMKII.loop3.water2.frame5 

   0  1 
C         79.94038       61.88440       42.16849
C         81.06911       61.00553       42.60603
O         82.15718       61.14001       42.06820
H         79.02038       61.68490       42.75627
H         80.23061       62.94629       42.31950
H         79.73158       61.70974       41.09376
N         80.90290       60.10995       43.61667
C         82.01375       59.33087       44.13567
C         82.45446       58.24843       43.13452
O         81.67345       57.35530       42.83884
C         81.62927       58.74143       45.50922
C         82.83250       58.27063       46.24775
O         82.71803       57.77654       47.35129
O         84.04442       58.41701       45.69778
H         79.98693       60.06084       44.09004
H         82.84033       60.05479       44.32315
H         80.88879       57.92062       45.38734
H         81.17472       59.53298       46.14364
N         83.68290       58.30993       42.53850
C         84.14364       57.39865       41.47872
C         84.50999       55.98482       41.92774
O         84.30334       55.08644       41.12210
C         85.30847       58.03032       40.67150
C         84.84422       58.86181       39.46105
C         83.78059       59.93056       39.74817
C         83.41417       60.74758       38.49288
N         82.93279       59.91196       37.38718
H         84.27525       59.11838       42.77734
H         83.31449       57.24960       40.75061
H         85.94746       57.23550       40.22763
H         85.96515       58.62354       41.33125
H         84.41739       58.14036       38.73413
H         85.73892       59.33738       39.00404
H         84.15901       60.63029       40.52204
H         82.85607       59.44370       40.12678
H         84.30067       61.32647       38.15459
H         82.61662       61.47198       38.77176
H         82.12423       59.32382       37.69360
H         82.62582       60.52969       36.60186
H         83.69967       59.30467       37.01978
N         85.06678       55.68882       43.13989
C         85.34194       54.30225       43.55709
C         84.41758       53.85962       44.68219
O         84.49717       52.70397       45.07805
C         86.83844       54.03158       43.88861
C         87.45439       54.81953       45.01082
O         86.81086       55.84656       45.56174
O         88.58618       54.56382       45.38529
H         85.23663       56.46029       43.79910
H         85.11129       53.60142       42.72458
H         87.45576       54.19888       42.98127
H         86.92905       52.95582       44.15913
N         83.47033       54.68910       45.20421
C         82.50914       54.26029       46.19799
C         83.15912       53.86981       47.49933
O         82.93511       52.75848       47.95781
H         83.37424       55.65402       44.86116
H         81.90518       53.41749       45.79298
H         81.81125       55.10052       46.40715
N         83.92072       54.76878       48.18507
C         84.40182       54.53411       49.54307
C         83.67273       55.44609       50.53552
O         84.00320       55.40940       51.71204
C         85.94876       54.65203       49.63310
C         86.54335       56.03026       49.46301
N         87.87402       56.21929       49.61568
O         85.83529       56.98663       49.21634
H         84.09316       55.68973       47.75754
H         84.16711       53.49388       49.85511
H         86.40946       53.96664       48.88771
H         86.25036       54.30452       50.64408
H         88.49644       55.43169       49.84561
H         88.28118       57.16207       49.52257
N         82.66341       56.28214       50.13455
C         81.91605       57.15813       51.02295
C         82.37333       58.60531       50.94701
O         81.78629       59.43041       51.63109
H         82.37397       56.30259       49.15172
H         82.01381       56.82429       52.07708
H         80.83938       57.08915       50.75447
N         83.45877       58.97386       50.20808
C         84.06078       60.30193       50.22771
C         84.33873       60.77247       48.81595
O         84.94946       60.03509       48.05522
C         85.39833       60.22299       50.99224
C         85.17965       59.72189       52.39909
C         85.68083       58.46751       52.78097
C         84.45397       60.48527       53.33087
C         85.44865       57.97661       54.06736
C         84.22830       59.99430       54.62057
C         84.72170       58.73445       54.99085
O         84.50212       58.24143       56.22618
H         83.95823       58.25535       49.67997
H         83.41717       61.03653       50.75934
H         85.89179       61.22003       51.02909
H         86.07907       59.53268       50.44728
H         86.23660       57.86046       52.07751
H         84.06049       61.45732       53.05962
H         85.83002       57.00203       54.34317
H         83.66572       60.59040       55.32841
H         83.99848       58.72913       56.89322
N         84.01256       62.03490       48.43033
C         84.39875       62.59119       47.13919
C         85.62351       63.45142       47.38404
O         85.57965       64.31180       48.25330
C         83.24770       63.43163       46.52157
C         81.92101       62.63638       46.45673
C         83.65236       63.91277       45.10711
C         80.71432       63.54810       46.22081
H         83.58994       62.66962       49.12558
H         84.64973       61.77850       46.42049
H         83.08633       64.30706       47.18874
H         81.72654       62.13436       47.42707
H         81.97992       61.85363       45.67356
H         83.82615       63.03919       44.43850
H         82.87460       64.55080       44.64551
H         84.58492       64.51087       45.13780
H         80.63795       64.28126       47.05428
H         80.78322       64.09916       45.26314
H         79.78531       62.94167       46.20798
N         86.74979       63.28433       46.64009
C         87.96202       64.06427       46.84327
C         88.03709       65.17648       45.82586
O         87.17138       65.26777       44.97409
C         89.19529       63.14204       46.79002
O         89.30708       62.51862       45.53668
H         86.71999       62.63571       45.84682
H         87.93852       64.55666       47.83864
H         89.13500       62.38382       47.60429
H         90.12632       63.71682       46.97172
H         88.95753       61.59478       45.63648
N         89.02710       66.10478       45.89467
C         89.14287       67.21728       44.95873
C         89.38822       66.70816       43.55054
O         88.69500       67.13052       42.63611
C         90.26815       68.15558       45.40058
H         89.71589       66.02449       46.65856
H         88.20717       67.82134       44.97772
H         91.24575       67.63105       45.42322
H         90.33099       69.02638       44.71389
H         90.04319       68.53906       46.42047
N         90.33502       65.75558       43.31779
C         90.59822       65.17683       42.00259
C         89.33522       64.59009       41.38668
O         89.01372       64.93984       40.25982
C         91.67971       64.09402       42.11483
H         90.87292       65.40372       44.12582
H         90.99361       65.96869       41.32765
H         91.91168       63.67658       41.11177
H         92.61244       64.53286       42.53088
H         91.34950       63.26824       42.78116
N         88.55318       63.71863       42.08588
C         87.31423       63.13577       41.56163
C         86.33686       64.21830       41.11648
O         85.79726       64.10613       40.02472
C         86.65145       62.19285       42.60176
C         87.53706       60.96163       42.89640
C         86.91666       60.00060       43.87957
O         86.58973       60.39802       45.11935
O         86.75731       58.83060       43.57761
H         88.84292       63.48810       43.04739
H         87.54620       62.51162       40.66982
H         85.68468       61.82613       42.19114
H         86.43704       62.75724       43.53393
H         88.51139       61.28372       43.30778
H         87.73370       60.42403       41.94272
N         86.10112       65.31567       41.88638
C         85.20961       66.39628       41.51501
H         84.44321       66.52671       42.30743
H         85.79046       67.33976       41.42630
H         84.69385       66.20964       40.55061
H         86.60640       65.41659       42.76741
Ca        85.86182       57.55262       46.55921
O         87.87712       59.66656       48.14772
H         88.80087       59.35346       48.31628
H         87.81511       60.52962       48.62851
O         89.00506       58.13498       45.73902
H         89.96051       58.39220       45.74592
H         89.00054       57.20390       46.07299

Ca 1.0



