%chk=holoCaM.loop1.water2.frame469.chk
%nprocshared=20
%mem=10GB
%nosave
#b3lyp/svp scf=(tight,noincore,xqc) Test 
#IOP(5/87=12) Density=Current Pop=(MK,readradii) iop(6/33=2) iop(6/42=6)

holoCaM.loop1.water2.frame469 

   0  1 
C         21.17409       77.10590       46.91592
C         20.62819       78.35381       46.29673
O         19.96348       78.25662       45.27388
H         21.76520       77.33334       47.82685
H         20.33324       76.43557       47.19323
H         21.82730       76.58935       46.18256
N         20.84312       79.57107       46.87296
C         20.29041       80.78687       46.30373
C         20.97447       81.08858       44.97341
O         22.17127       81.34363       44.97080
C         20.44849       81.97876       47.28115
C         19.65349       83.15788       46.81247
O         19.65269       84.20034       47.43611
O         18.88647       83.00313       45.72704
H         21.36802       79.62235       47.75933
H         19.19797       80.60613       46.16727
H         21.52056       82.25022       47.38698
H         20.05052       81.69654       48.27997
N         20.28781       81.02195       43.79728
C         20.94401       81.17458       42.50276
C         21.42346       82.59604       42.23964
O         22.59662       82.74876       41.92799
C         20.06178       80.62577       41.35702
C         20.85359       80.56883       40.03206
C         20.19879       79.65295       38.98916
C         21.06655       79.57494       37.72065
N         20.55978       78.56653       36.79036
H         19.29451       80.74722       43.82350
H         21.83019       80.49819       42.50476
H         19.11846       81.20016       41.22977
H         19.79683       79.58278       41.64170
H         21.85738       80.13468       40.23617
H         20.99194       81.59668       39.63082
H         19.17798       80.00865       38.73160
H         20.12212       78.63298       39.42703
H         22.11055       79.30211       37.99543
H         21.08746       80.57062       37.22441
H         21.16078       78.55899       35.93427
H         20.60612       77.62024       37.23504
H         19.57444       78.78168       36.51674
N         20.59521       83.68088       42.33605
C         21.03587       85.03472       41.97796
C         21.49599       85.85998       43.17273
O         21.92664       86.98658       42.96617
C         19.96446       85.75281       41.12343
C         18.71464       86.15803       41.86090
O         18.60281       85.98939       43.18876
O         17.80418       86.69449       41.25072
H         19.63177       83.54147       42.67507
H         21.93108       84.95626       41.32286
H         19.68938       85.08560       40.27810
H         20.40193       86.68189       40.69752
N         21.49169       85.35909       44.43976
C         22.02698       86.08629       45.57731
C         21.23656       87.33053       45.89810
O         21.80657       88.41063       45.94880
H         21.14841       84.40375       44.61285
H         23.09518       86.33373       45.39375
H         21.98451       85.42823       46.47272
N         19.91445       87.22411       46.19016
C         19.08273       88.32008       46.67681
C         18.60838       88.03525       48.10436
O         17.77349       88.77061       48.61328
C         17.91612       88.57151       45.69463
C         16.94107       87.43652       45.52112
O         16.01247       87.56558       44.74019
O         17.06573       86.28738       46.21024
H         19.48660       86.29206       46.11428
H         19.65879       89.27048       46.71609
H         18.35138       88.81061       44.69963
H         17.34488       89.46201       46.03685
N         19.14059       87.00579       48.82824
C         18.74650       86.65277       50.17783
C         17.33836       86.11901       50.22606
O         16.55036       86.59772       51.02550
H         19.90022       86.44045       48.42909
H         18.88443       87.51656       50.86414
H         19.41096       85.83247       50.52912
N         16.97128       85.09351       49.40299
C         15.66338       84.43327       49.43558
C         15.59499       83.26417       48.44921
O         16.38256       83.18950       47.51798
C         14.46286       85.40705       49.17229
C         13.56734       85.54603       50.40428
O         14.89108       86.68771       48.78761
H         17.68341       84.74415       48.75205
H         15.57737       83.97756       50.44772
H         13.79049       85.00166       48.37966
H         15.26148       86.60425       47.87515
H         13.15445       84.55514       50.68883
H         14.12839       85.96166       51.26517
H         12.71983       86.22677       50.17488
N         14.66248       82.28661       48.63914
C         14.50262       81.11803       47.77824
C         13.06163       81.04838       47.26961
O         12.12488       81.17178       48.04397
C         14.98808       79.83036       48.52393
C         16.54840       79.87582       48.60869
C         14.52934       78.55219       47.80391
C         17.22603       78.61267       49.14870
H         14.05253       82.35090       49.46815
H         15.14798       81.19396       46.87798
H         14.54147       79.78765       49.54177
H         16.85088       80.73618       49.24220
H         16.97131       80.03484       47.59065
H         14.83165       77.65247       48.37568
H         13.42332       78.50623       47.74532
H         14.96108       78.50080       46.79024
H         17.05809       77.75001       48.46849
H         18.32525       78.77421       49.18217
H         16.86084       78.36746       50.16559
N         12.84509       80.76909       45.95087
C         11.54902       80.63169       45.29387
C         11.29387       79.15623       45.02117
O         12.04204       78.32870       45.50336
C         11.55592       81.43320       43.95845
C         11.80592       82.93216       44.17386
O         12.47179       80.87029       43.04347
H         13.66017       80.56061       45.37039
H         10.72702       81.00827       45.94043
H         10.55644       81.37492       43.48282
H         13.31500       81.38889       43.05578
H         11.78580       83.45758       43.19431
H         11.01720       83.36303       44.82479
H         12.79645       83.09302       44.64340
N         10.24990       78.74739       44.25051
C         10.00684       77.34245       43.92826
C         11.17838       76.71456       43.17723
O         11.68301       75.69642       43.63306
C          8.70300       77.18364       43.10446
C          7.47422       77.57054       43.93805
O          8.76079       77.96878       41.94031
H          9.61214       79.45854       43.87219
H          9.86697       76.77076       44.87390
H          8.60442       76.10799       42.82703
H          7.99779       77.69802       41.36662
H          7.51119       78.63499       44.24804
H          6.55110       77.41134       43.34293
H          7.41738       76.93412       44.84663
N         11.63933       77.23682       42.00526
C         12.66222       76.57984       41.18975
C         13.97289       76.44045       41.94021
O         14.52842       75.35218       41.98034
C         12.90400       77.29856       39.84171
C         11.59904       77.46950       39.03260
C         11.82947       77.79529       37.54881
C         12.28446       76.55259       36.75875
N         12.43658       76.85370       35.33673
H         11.21938       78.11442       41.66997
H         12.29801       75.56242       40.92045
H         13.61728       76.65868       39.28205
H         13.38084       78.29535       39.97693
H         11.02117       78.30148       39.48666
H         10.97344       76.55228       39.08670
H         12.54919       78.63614       37.44262
H         10.85561       78.11573       37.11800
H         11.51441       75.75576       36.87448
H         13.24603       76.15928       37.14768
H         12.68427       75.97365       34.82846
H         11.54047       77.22550       34.94580
H         13.20218       77.55232       35.20069
N         14.49891       77.51203       42.59094
C         15.74065       77.47699       43.36528
C         15.65510       76.37680       44.41899
O         16.52873       75.52229       44.46267
C         16.00148       78.86446       44.00631
C         16.14910       79.98382       42.94418
C         16.25744       81.35144       43.55331
O         17.24088       82.18776       43.19789
O         15.42266       81.74411       44.34729
H         13.94636       78.38008       42.56736
H         16.59970       77.25452       42.69454
H         16.91836       78.83011       44.63654
H         15.14240       79.10071       44.65806
H         15.25888       80.02033       42.29268
H         17.03361       79.78433       42.30263
N         14.57660       76.30063       45.24418
C         14.34490       75.24243       46.20725
H         13.40762       74.70763       45.93981
H         15.17348       74.50648       46.23812
H         14.21398       75.67680       47.21847
H         13.85111       77.01118       45.14986
Ca        17.36394       84.00903       44.49607
O         15.25727       84.59854       42.39594
H         15.54360       85.49559       42.70234
H         14.44711       84.76783       41.85332
O         14.16015       85.18779       45.50734
H         14.08705       86.05996       45.96676
H         13.63812       85.31451       44.67653

Ca 1.0



