%chk=holoCaM.loop1.water2.frame272.chk
%nprocshared=20
%mem=10GB
%nosave
#b3lyp/svp scf=(tight,noincore,xqc) Test 
#IOP(5/87=12) Density=Current Pop=(MK,readradii) iop(6/33=2) iop(6/42=6)

holoCaM.loop1.water2.frame272 

   0  1 
C         32.51062      104.46407       73.94358
C         32.02009      104.97801       72.62319
O         32.53473      105.97131       72.14031
H         33.33520      105.09478       74.33663
H         31.67249      104.47609       74.67312
H         32.87396      103.42150       73.82760
N         31.01645      104.31843       71.98602
C         30.37993      104.71946       70.73062
C         29.37718      105.82511       71.02775
O         28.18145      105.58506       71.09849
C         29.81388      103.43395       70.08788
C         29.01584      103.51852       68.82107
O         29.43307      104.15621       67.71254
O         28.00529      102.83919       68.74268
H         30.66228      103.46713       72.45075
H         31.12989      105.09913       69.99957
H         29.19311      102.88642       70.82846
H         30.68642      102.79206       69.85062
N         29.85350      107.08318       71.23937
C         29.08934      108.26468       71.61637
C         27.95935      108.54350       70.63135
O         26.80729      108.45740       71.03383
C         30.10346      109.44268       71.75170
C         29.58287      110.80367       72.21361
C         28.90389      110.74100       73.58167
C         28.58822      112.15218       74.08939
N         27.82603      112.09667       75.33439
H         30.86345      107.20483       71.15326
H         28.64229      108.06263       72.61400
H         30.61773      109.60123       70.77843
H         30.88678      109.13156       72.48043
H         28.88590      111.22841       71.46045
H         30.46972      111.47568       72.28173
H         29.56882      110.23886       74.31954
H         27.96482      110.15733       73.48322
H         27.99713      112.70453       73.32645
H         29.54198      112.70304       74.26018
H         28.36555      111.58421       76.06921
H         27.63768      113.07090       75.66303
H         26.91296      111.61500       75.16516
N         28.20225      108.88945       69.33403
C         27.12909      109.16329       68.36934
C         26.33159      107.92065       67.93037
O         25.35570      108.09929       67.21376
C         27.65689      109.93937       67.13770
C         28.74694      109.25213       66.36424
O         29.28751      108.10401       66.80413
O         29.16882      109.76039       65.33896
H         29.18265      109.02798       69.05368
H         26.40680      109.85704       68.85807
H         28.05321      110.92324       67.47019
H         26.80105      110.13891       66.45523
N         26.63301      106.65327       68.34298
C         25.77182      105.50454       68.07000
C         25.86098      104.91324       66.67178
O         25.09703      103.99659       66.40184
H         27.42906      106.50706       68.97124
H         24.71907      105.78753       68.29487
H         26.03637      104.68340       68.76820
N         26.75128      105.34644       65.73443
C         26.81081      104.77373       64.38317
C         27.26056      103.30065       64.31259
O         27.13992      102.72848       63.23765
C         27.66515      105.65352       63.43593
C         29.00791      106.03983       63.99129
O         29.81233      105.12434       64.53865
O         29.35583      107.20832       63.98835
H         27.37059      106.13130       65.97753
H         25.77987      104.78939       63.96501
H         27.11650      106.59670       63.22529
H         27.79615      105.12763       62.46592
N         27.79013      102.62432       65.37224
C         28.17490      101.21358       65.33098
C         29.67729      100.98758       65.36019
O         30.08081       99.83334       65.38850
H         27.93210      103.12341       66.25000
H         27.80421      100.71860       64.40742
H         27.70025      100.69634       66.19276
N         30.56354      102.02094       65.27574
C         32.01118      101.85209       65.17114
C         32.73725      102.66851       66.23119
O         32.11279      103.45645       66.92768
C         32.48475      102.28052       63.75489
C         31.87836      101.40562       62.64426
O         32.20721      103.63806       63.52039
H         30.19764      102.97114       65.22112
H         32.28554      100.78543       65.32142
H         33.58564      102.15433       63.68331
H         31.26116      103.71529       63.23256
H         30.76932      101.47946       62.63701
H         32.25404      101.74548       61.65515
H         32.16735      100.34496       62.79112
N         34.08171      102.51086       66.40559
C         34.87621      103.27931       67.35830
C         36.00461      103.96061       66.59727
O         36.89164      103.27849       66.10153
C         35.41284      102.33207       68.47906
C         34.26504      101.70571       69.31889
C         36.44329      103.00613       69.40415
C         33.51749      102.68864       70.22981
H         34.56984      101.79909       65.84007
H         34.25907      104.06880       67.83427
H         35.94092      101.49211       67.97473
H         34.69237      100.91436       69.97196
H         33.53421      101.21306       68.64257
H         36.79354      102.28685       70.17483
H         37.33320      103.33270       68.83281
H         36.01425      103.88894       69.91186
H         32.72674      102.14132       70.78296
H         34.19337      103.12848       70.99142
H         33.04530      103.50529       69.64986
N         36.02169      105.31725       66.45571
C         37.10736      106.04245       65.80166
C         38.36371      105.97483       66.65823
O         38.32015      105.46236       67.76755
C         36.74442      107.54633       65.55932
C         35.52511      107.75868       64.66119
O         36.57019      108.24054       66.76242
H         35.22624      105.84415       66.81847
H         37.29698      105.58020       64.80821
H         37.58799      108.03523       65.02970
H         35.68524      107.99889       67.13445
H         35.36290      108.84995       64.51702
H         35.67798      107.28287       63.67241
H         34.62347      107.34121       65.14377
N         39.51886      106.53839       66.21616
C         40.70604      106.68360       67.05565
C         40.38074      107.55229       68.26412
O         40.89501      107.30053       69.34446
C         41.86836      107.32196       66.25790
C         42.31574      106.41260       65.10392
O         41.47549      108.57656       65.76002
H         39.52926      106.93530       65.26562
H         41.04660      105.68332       67.40781
H         42.72970      107.44970       66.95459
H         42.29285      109.02139       65.41522
H         43.17279      106.87423       64.57084
H         42.63826      105.42583       65.49823
H         41.49904      106.25365       64.36993
N         39.51891      108.59948       68.13241
C         39.12969      109.49762       69.21299
C         38.40341      108.72989       70.31544
O         38.82473      108.76658       71.46245
C         38.22397      110.60531       68.61893
C         38.05110      111.81842       69.53201
C         37.14540      112.85554       68.85169
C         37.04599      114.13695       69.68365
N         36.17499      115.11501       69.03239
H         39.12497      108.77544       67.19626
H         40.05069      109.97992       69.60871
H         37.23273      110.18671       68.34176
H         38.69983      110.98516       67.68720
H         39.05520      112.26537       69.70657
H         37.61280      111.51767       70.50696
H         36.13108      112.41864       68.71497
H         37.55570      113.11456       67.84986
H         38.06169      114.57629       69.80519
H         36.64142      113.89423       70.69034
H         36.57027      115.38746       68.10278
H         35.21695      114.71534       68.90401
H         36.10872      115.96708       69.63436
N         37.29702      107.99471       70.00593
C         36.50635      107.20716       70.95032
C         37.29459      106.03465       71.52428
O         36.80727      105.41493       72.45980
C         35.23383      106.67163       70.23726
C         34.30832      107.82068       69.78268
C         33.16831      107.35669       68.92107
O         33.37251      106.72255       67.90282
O         31.91657      107.73909       69.20217
H         37.00426      107.99669       69.02905
H         36.19687      107.86754       71.79084
H         34.66738      105.98820       70.90134
H         35.55995      106.08646       69.34930
H         34.87410      108.55251       69.17958
H         33.91249      108.35768       70.67138
N         38.49945      105.65592       71.00803
C         39.30022      104.56910       71.52976
H         40.30298      104.96038       71.80385
H         38.84864      104.10047       72.42799
H         39.42354      103.79428       70.74432
H         38.87830      106.14052       70.18930
Ca        30.27434      106.19418       67.42751
O         32.42881      106.36870       64.35122
H         32.41112      107.34860       64.47631
H         32.10177      106.24343       63.42616
O         32.45005      109.12929       66.42705
H         32.60573      110.07051       66.68758
H         31.61328      109.15289       65.90155

Ca 1.0



