%chk=holoCaM-CaMKII.loop1.water2.frame15.chk
%nprocshared=20
%mem=10GB
%nosave
#b3lyp/svp scf=(tight,noincore,xqc) Test 
#IOP(5/87=12) Density=Current Pop=(MK,readradii) iop(6/33=2) iop(6/42=6)

holoCaM-CaMKII.loop1.water2.frame15 

   0  1 
C         40.22282       61.50725       -1.14459
C         40.83409       61.13408       -2.45709
O         40.11372       60.76109       -3.37218
H         39.11891       61.39396       -1.17912
H         40.62884       60.84424       -0.35150
H         40.47466       62.56162       -0.90705
N         42.18370       61.20301       -2.61422
C         42.85589       60.83730       -3.85226
C         42.52797       59.38532       -4.17959
O         42.73914       58.50983       -3.35244
C         44.36059       61.12944       -3.72156
C         45.11227       60.89804       -4.99229
O         46.18200       60.08873       -4.98249
O         44.79432       61.47606       -6.01962
H         42.75012       61.52499       -1.81322
H         42.47391       61.50053       -4.66189
H         44.80607       60.52147       -2.90503
H         44.48305       62.20475       -3.46378
N         41.92731       59.09382       -5.36415
C         41.32173       57.81998       -5.71804
C         42.15529       57.15623       -6.79032
O         42.65841       56.06789       -6.54741
C         39.85429       58.10882       -6.13922
C         39.01877       56.90954       -6.62013
C         38.95426       55.72494       -5.64712
C         38.39770       56.08766       -4.26201
N         38.37102       54.90724       -3.39935
H         41.84951       59.84544       -6.05112
H         41.30895       57.14347       -4.83567
H         39.83968       58.85985       -6.96005
H         39.33789       58.58173       -5.27573
H         39.43368       56.54235       -7.58307
H         37.98500       57.27327       -6.81994
H         39.97109       55.29576       -5.53529
H         38.30335       54.94629       -6.10266
H         37.36863       56.49928       -4.36206
H         39.03908       56.85848       -3.78385
H         38.01827       55.17873       -2.45363
H         37.73875       54.17933       -3.80443
H         39.33693       54.51733       -3.29911
N         42.38704       57.76599       -7.98470
C         43.28967       57.20576       -8.98677
C         44.70546       57.02318       -8.42814
O         45.19535       55.90355       -8.48105
C         43.24168       57.98894      -10.32577
C         43.43106       59.48397      -10.28918
O         43.56409       60.14676       -9.12941
O         43.37151       60.11552      -11.33191
H         41.91534       58.66196       -8.17121
H         42.92322       56.18926       -9.25915
H         42.23014       57.82991      -10.76123
H         43.97974       57.53700      -11.02362
N         45.40260       58.03921       -7.83887
C         46.72489       57.87292       -7.24588
C         47.74128       58.78741       -7.89612
O         48.74606       58.28925       -8.38281
H         44.96715       58.96185       -7.74774
H         47.08109       56.82317       -7.32155
H         46.66089       58.09588       -6.16584
N         47.53801       60.13623       -7.95978
C         48.45532       61.06461       -8.62176
C         48.90374       62.21617       -7.71425
O         49.56814       63.11778       -8.20685
C         47.82183       61.55847       -9.94251
C         46.57054       62.37748       -9.81041
O         46.00840       62.77897      -10.81623
O         46.06093       62.68191       -8.60717
H         46.66443       60.51541       -7.57236
H         49.38140       60.53626       -8.93733
H         47.58448       60.66449      -10.56063
H         48.57047       62.16401      -10.49738
N         48.64410       62.22522       -6.37294
C         49.14931       63.24831       -5.46600
C         48.32725       64.51966       -5.41924
O         48.68373       65.38536       -4.63018
H         48.17625       61.41688       -5.94443
H         50.21452       63.47140       -5.69712
H         49.11924       62.83829       -4.43382
N         47.21964       64.71506       -6.19110
C         46.38093       65.90762       -6.09778
C         44.93027       65.54010       -5.80809
O         44.55160       64.38168       -5.92959
C         46.49395       66.75918       -7.38738
C         47.91625       67.29917       -7.59818
O         46.07182       66.03663       -8.51603
H         46.95278       63.99320       -6.86626
H         46.71905       66.54114       -5.24819
H         45.83172       67.64682       -7.28940
H         46.77501       65.37538       -8.74762
H         48.21998       67.92435       -6.73238
H         48.64413       66.46794       -7.71366
H         47.94800       67.92477       -8.51548
N         44.07087       66.50112       -5.36945
C         42.66039       66.28570       -5.05729
C         41.84827       67.26484       -5.89101
O         42.12616       68.45726       -5.85754
C         42.41345       66.45465       -3.52475
C         43.19880       65.35621       -2.75155
C         40.90598       66.36582       -3.19505
C         43.13050       65.48216       -1.22757
H         44.44667       67.45150       -5.21799
H         42.34398       65.24856       -5.31149
H         42.77811       67.45818       -3.21231
H         44.27318       65.41081       -3.02505
H         42.82123       64.34980       -3.04224
H         40.33785       67.15497       -3.72671
H         40.49586       65.37384       -3.48119
H         40.71569       66.53249       -2.11614
H         43.74638       64.68018       -0.76724
H         43.53239       66.46574       -0.90586
H         42.09682       65.36001       -0.84708
N         40.79810       66.82580       -6.63611
C         39.96743       67.68511       -7.46934
C         38.67853       68.00151       -6.74722
O         38.48548       67.55329       -5.62998
C         39.65646       66.98332       -8.82280
C         40.93582       66.67832       -9.61165
O         38.87925       65.82516       -8.59640
H         40.52142       65.84275       -6.54999
H         40.47908       68.65322       -7.66547
H         39.05669       67.65876       -9.46692
H         39.34829       65.01806       -8.93163
H         41.56428       65.97571       -9.03418
H         40.67575       66.20505      -10.58338
H         41.50178       67.61176       -9.81043
N         37.73547       68.77546       -7.33723
C         36.42874       69.02887       -6.74362
C         35.67703       67.71830       -6.54414
O         35.15568       67.49425       -5.46117
C         35.61451       70.01125       -7.62221
C         36.27732       71.40046       -7.63143
O         35.50000       69.51420       -8.93216
H         37.94615       69.17149       -8.26536
H         36.54818       69.51377       -5.74780
H         34.59987       70.11727       -7.17435
H         34.90894       70.13693       -9.43034
H         36.34693       71.79487       -6.59481
H         37.29843       71.36416       -8.06448
H         35.67039       72.11093       -8.23005
N         35.60298       66.79756       -7.54694
C         34.84426       65.55266       -7.44717
C         35.33119       64.68308       -6.29465
O         34.53437       64.28518       -5.45680
C         34.95631       64.76637       -8.78178
C         33.89025       63.66707       -8.96024
C         32.49266       64.28406       -9.16327
C         31.42305       63.23883       -9.48575
N         30.13237       63.89146       -9.71564
H         36.09262       67.00580       -8.43059
H         33.78882       65.83780       -7.27946
H         35.97406       64.32362       -8.86316
H         34.84171       65.46051       -9.64260
H         33.90143       62.95603       -8.10565
H         34.14601       63.10133       -9.88323
H         32.54292       64.99980      -10.01366
H         32.16937       64.83160       -8.25658
H         31.33284       62.52342       -8.63907
H         31.71459       62.67498      -10.39950
H         29.83772       64.42039       -8.86233
H         30.20254       64.55101      -10.52534
H         29.41052       63.16786       -9.93260
N         36.65178       64.36778       -6.20169
C         37.24665       63.52320       -5.16478
C         36.94146       64.08569       -3.78639
O         36.39136       63.37077       -2.96012
C         38.77383       63.39970       -5.40928
C         39.05752       62.67773       -6.74847
C         40.50763       62.64670       -7.12923
O         41.14137       63.67746       -7.26719
O         41.08728       61.47993       -7.44002
H         37.27087       64.78284       -6.91018
H         36.81724       62.49746       -5.22023
H         39.25354       62.83166       -4.58597
H         39.21289       64.41728       -5.41700
H         38.53776       63.18014       -7.58352
H         38.67017       61.63701       -6.69122
N         37.22001       65.38070       -3.48892
C         36.87706       65.98865       -2.22270
H         35.78186       65.91023       -2.04966
H         37.42515       65.49025       -1.39725
H         37.14932       67.06644       -2.23798
H         37.65548       65.96683       -4.20282
Ca        43.39755       62.37942       -9.01816
O         43.88010       64.97891       -9.87579
H         43.70950       65.28610       -8.94917
H         43.58311       65.72505      -10.45258
O         40.94385       62.67292      -10.46770
H         39.97541       62.80006      -10.62355
H         41.15499       61.80323      -10.89148

Ca 1.0



