%chk=holoCaM-CaMKII.loop2.water2.frame123.chk
%nprocshared=20
%mem=10GB
%nosave
#b3lyp/svp scf=(tight,noincore,xqc) Test 
#IOP(5/87=12) Density=Current Pop=(MK,readradii) iop(6/33=2) iop(6/42=6)

holoCaM-CaMKII.loop2.water2.frame123 

   -2  1 
C         32.01879       70.37997       73.44179
C         31.53401       71.25739       72.32657
O         31.97101       71.09749       71.19602
H         32.46469       70.99949       74.24657
H         31.15542       69.81544       73.85746
H         32.77174       69.65025       73.07702
N         30.57792       72.18979       72.57881
C         29.94666       72.98228       71.53418
C         30.92696       73.96242       70.88979
O         31.52980       74.76026       71.59381
C         28.73286       73.73816       72.11775
C         27.78146       74.22368       71.06239
O         27.93750       73.91766       69.89165
O         26.69342       74.92832       71.42376
H         30.22772       72.27086       73.54665
H         29.55048       72.26179       70.78353
H         29.08406       74.58179       72.75056
H         28.13496       73.05013       72.75277
N         31.10242       73.96373       69.53941
C         32.00662       74.84327       68.80456
C         31.25687       75.73662       67.81133
O         31.91581       76.41148       67.03134
C         33.01548       73.96422       68.05199
H         30.55199       73.29922       68.98877
H         32.58179       75.50197       69.49135
H         32.49526       73.30222       67.32607
H         33.74804       74.59076       67.49842
H         33.57906       73.33181       68.77047
N         29.89071       75.81697       67.78909
C         29.15404       76.58703       66.78084
C         27.67230       76.88113       67.09696
O         27.04239       77.51810       66.26254
C         29.27179       75.88284       65.40906
C         28.77461       74.46098       65.38731
O         28.78386       73.85301       64.32940
O         28.36682       73.81721       66.49899
H         29.37736       75.29289       68.49515
H         29.61647       77.59576       66.69680
H         30.33243       75.86054       65.08356
H         28.70983       76.46847       64.64973
N         27.05063       76.53323       68.26270
C         25.68362       76.91455       68.59109
C         24.58617       76.30734       67.73032
O         23.44388       76.68365       67.95329
H         27.56858       76.07273       69.00846
H         25.61070       78.02211       68.52482
H         25.47173       76.63137       69.64501
N         24.81490       75.40623       66.72721
C         23.74657       74.96996       65.82132
C         22.70942       74.00973       66.42853
O         21.84230       73.56505       65.68785
C         24.32091       74.43077       64.49089
C         25.00400       73.09550       64.52340
N         25.42251       72.55262       63.35691
O         25.15861       72.49072       65.57101
H         25.78092       75.11234       66.52625
H         23.20009       75.88318       65.49598
H         25.02706       75.17946       64.06906
H         23.47346       74.33115       63.77879
H         25.28643       73.05313       62.46722
H         25.85981       71.62681       63.32305
N         22.68306       73.68295       67.75396
C         21.64106       72.85722       68.35110
C         21.83798       71.35935       68.19862
O         21.00763       70.62941       68.71609
H         23.34638       74.12750       68.39650
H         20.64455       73.16829       67.96668
H         21.63824       73.04218       69.44715
N         22.91340       70.82200       67.55326
C         23.17322       69.38208       67.49170
C         24.53002       69.06359       68.10320
O         25.28323       69.96060       68.44100
C         23.14963       68.89108       66.01645
C         21.75964       68.98632       65.39572
O         24.04880       69.63039       65.23237
H         23.59422       71.44690       67.11087
H         22.41368       68.81184       68.06752
H         23.41169       67.80817       65.96248
H         24.94024       69.21778       65.36172
H         21.04619       68.35875       65.97121
H         21.40192       70.03583       65.37922
H         21.79519       68.60253       64.35247
N         24.92006       67.75939       68.18493
C         26.28226       67.34043       68.47418
C         26.82273       66.86667       67.14648
O         26.24014       65.97653       66.54555
C         26.32293       66.21444       69.54863
C         25.81535       66.75033       70.91013
C         27.75665       65.64681       69.68513
C         25.61598       65.64939       71.95670
H         24.25782       67.02927       67.88792
H         26.90476       68.18988       68.83335
H         25.65386       65.39206       69.21105
H         24.82796       67.23838       70.76976
H         26.52414       67.51333       71.30292
H         28.11383       65.23286       68.71922
H         28.46586       66.43822       70.01041
H         27.79918       64.80699       70.40559
H         25.22999       66.09743       72.89613
H         24.87416       64.90843       71.58926
H         26.56184       65.12698       72.20155
N         27.94101       67.43735       66.62725
C         28.48335       67.06236       65.33001
C         29.63305       66.11998       65.51691
O         30.02591       65.86654       66.63827
C         28.84248       68.33731       64.55092
C         27.56710       68.97695       64.09657
O         26.87807       68.39754       63.27257
O         27.12053       70.14286       64.58713
H         28.45571       68.13053       67.18845
H         27.74541       66.46171       64.75368
H         29.44234       68.11304       63.64357
H         29.44244       69.01595       65.19933
N         30.13175       65.44745       64.44239
C         31.11483       64.38921       64.60358
C         32.42793       64.93688       65.14185
O         32.86628       64.41769       66.16362
C         31.27812       63.56847       63.30469
C         32.21969       62.40895       63.51499
C         33.42651       62.34027       62.80083
C         31.90433       61.39028       64.43326
C         34.30652       61.27481       63.00842
C         32.78643       60.32691       64.63634
C         33.98756       60.26978       63.92577
H         29.73742       65.63346       63.50934
H         30.70271       63.67060       65.34644
H         31.63051       64.19632       62.47260
H         30.28880       63.16719       62.99335
H         33.69026       63.11462       62.09110
H         30.97746       61.41621       64.99263
H         35.23737       61.23043       62.45915
H         32.53810       59.54838       65.34606
H         34.67070       59.44656       64.08610
N         33.11405       65.98040       64.57488
C         34.34495       66.54019       65.11981
C         34.25699       66.83122       66.60742
O         35.15486       66.46068       67.34640
C         34.52548       67.85034       64.34059
C         33.94562       67.48821       62.99767
C         32.68784       66.73220       63.40414
H         35.18365       65.84024       64.90349
H         33.86215       68.64376       64.75626
H         35.56726       68.23457       64.32532
H         33.76889       68.33746       62.30421
H         34.64520       66.76836       62.51204
H         31.86525       67.41873       63.70073
H         32.38908       66.12323       62.53927
N         33.16043       67.46863       67.10604
C         32.97951       67.79566       68.51823
C         33.04310       66.53792       69.36600
O         33.89652       66.45734       70.23889
C         31.63331       68.52674       68.72978
C         31.59705       69.86600       67.97150
C         30.27992       70.56522       68.08020
O         30.11760       71.60090       67.46224
O         29.26774       70.06189       68.81243
H         32.41298       67.70786       66.43984
H         33.79354       68.48332       68.84017
H         31.48341       68.72687       69.81364
H         30.79996       67.88047       68.37652
H         31.77091       69.70775       66.88928
H         32.39535       70.53639       68.35721
N         32.18592       65.50536       69.14287
C         32.20742       64.25626       69.87255
H         31.22138       64.09732       70.35677
H         32.39241       63.42454       69.15962
H         32.99715       64.23450       70.65119
H         31.48674       65.59410       68.40242
Ca        27.79628       71.68700       66.05921
O         25.20267       72.71443       69.37065
H         24.58084       72.83274       70.13221
H         25.48035       73.63303       69.12913
O         27.05920       70.92213       70.64121
H         27.60646       70.18215       71.00411
H         26.43965       71.15867       71.37611

Ca 1.0



