%chk=holoCaM-CaMKII.loop2.water2.frame107.chk
%nprocshared=20
%mem=10GB
%nosave
#b3lyp/svp scf=(tight,noincore,xqc) Test 
#IOP(5/87=12) Density=Current Pop=(MK,readradii) iop(6/33=2) iop(6/42=6)

holoCaM-CaMKII.loop2.water2.frame107 

   -2  1 
C          9.83680       38.76086       49.57174
C          9.64214       38.39225       48.13582
O          9.88025       39.21979       47.26658
H         10.19229       39.80922       49.66027
H          8.87340       38.65792       50.11295
H         10.59017       38.08467       50.02703
N          9.21409       37.14240       47.80839
C          9.02654       36.72679       46.42773
C          7.92227       37.57486       45.79913
O          6.83739       37.61636       46.36353
C          8.70349       35.21470       46.36291
C          8.91107       34.66494       44.98353
O          9.43894       35.45000       44.03258
O          8.68632       33.49377       44.75105
H          9.04322       36.46487       48.56857
H          9.99821       36.88382       45.91518
H          7.66773       35.02568       46.71977
H          9.40736       34.65275       47.01571
N          8.13773       38.31421       44.66801
C          7.19591       39.32463       44.18173
C          6.43720       38.93496       42.91849
O          5.47602       39.62357       42.60450
C          7.94024       40.64762       43.99076
H          9.02988       38.21004       44.17496
H          6.40979       39.48100       44.95198
H          7.24175       41.45458       43.68682
H          8.43518       40.94313       44.94072
H          8.72238       40.53397       43.20784
N          6.74713       37.82677       42.18935
C          5.86067       37.26982       41.15441
C          5.35013       35.89055       41.58209
O          4.49767       35.34887       40.89236
C          6.49616       37.25399       39.72980
C          7.77334       36.47094       39.61933
O          8.27294       35.94609       40.73897
O          8.37625       36.38799       38.56176
H          7.60027       37.31845       42.44890
H          4.95023       37.90130       41.06484
H          6.70813       38.30109       39.42442
H          5.75643       36.83210       39.01468
N          5.77386       35.28702       42.73532
C          5.19622       34.07037       43.26742
C          5.37508       32.86138       42.38591
O          4.37370       32.25569       42.03079
H          6.48828       35.72478       43.33018
H          4.11562       34.24480       43.46401
H          5.67676       33.84297       44.24547
N          6.62005       32.39752       42.07004
C          6.83565       31.10192       41.41804
C          7.52346       30.10999       42.35816
O          7.63342       28.94785       41.99355
C          7.62508       31.23380       40.09930
C          9.06985       31.60904       40.31595
N         10.06927       30.76365       39.97395
O          9.34336       32.68407       40.81192
H          7.43329       32.95011       42.37776
H          5.85042       30.65795       41.15721
H          7.13619       31.97671       39.43225
H          7.58933       30.25021       39.58285
H          9.86920       29.84159       39.56188
H         11.05168       31.03012       40.13211
N          8.01289       30.49437       43.57479
C          8.61777       29.59905       44.54157
C         10.07144       29.91947       44.85213
O         10.58820       29.28774       45.76268
H          7.93308       31.46728       43.87176
H          8.56389       28.53969       44.21234
H          8.02740       29.68755       45.47939
N         10.82050       30.81443       44.13070
C         12.25406       31.02926       44.38141
C         12.58786       32.50810       44.58895
O         11.68865       33.33589       44.56697
C         13.08720       30.41512       43.23179
C         12.79732       28.92425       43.04275
O         12.83608       31.08678       42.02799
H         10.39340       31.29931       43.32692
H         12.56781       30.50162       45.30859
H         14.17010       30.47514       43.49370
H         13.61906       31.67224       41.86212
H         12.99717       28.37073       43.98526
H         11.74099       28.75989       42.74207
H         13.45407       28.51396       42.24693
N         13.88072       32.90188       44.81708
C         14.28605       34.27366       45.12446
C         15.23394       34.81050       44.04730
O         16.33792       34.30119       43.91191
C         14.98671       34.28461       46.52388
C         14.02025       33.81088       47.63970
C         15.56762       35.66935       46.86676
C         14.73642       33.51326       48.96245
H         14.62338       32.18807       44.81798
H         13.39729       34.93857       45.17121
H         15.83466       33.56460       46.47244
H         13.53493       32.85974       47.33781
H         13.22215       34.56935       47.79833
H         14.76792       36.43897       46.89812
H         16.10372       35.65952       47.83393
H         16.33008       35.95922       46.12390
H         15.50054       32.72090       48.80609
H         15.22765       34.40871       49.39012
H         14.00176       33.14706       49.70894
N         14.87148       35.87576       43.27069
C         15.77557       36.57269       42.35315
C         16.73389       37.46466       43.13805
O         16.61750       37.54615       44.34694
C         14.96726       37.47687       41.38847
C         14.05067       36.69689       40.49449
O         14.50956       35.88593       39.70594
O         12.72344       36.91879       40.52446
H         13.91755       36.23514       43.35805
H         16.34223       35.83068       41.74913
H         15.65008       38.03318       40.71687
H         14.37942       38.21576       41.97654
N         17.69635       38.19335       42.50733
C         18.57660       39.13560       43.19995
C         17.80606       40.29993       43.84375
O         17.96591       40.47228       45.04347
C         19.67296       39.64473       42.24103
C         20.62135       40.62398       42.89757
C         20.76562       41.91911       42.37067
C         21.37266       40.25919       44.03087
C         21.64303       42.83075       42.96427
C         22.24521       41.17721       44.62464
C         22.38127       42.46111       44.09090
H         17.81076       38.06797       41.48980
H         19.10324       38.57982       44.00820
H         19.20339       40.10881       41.35096
H         20.26052       38.77216       41.88177
H         20.20175       42.22396       41.49802
H         21.28508       39.26873       44.45818
H         21.75052       43.82446       42.54939
H         22.81789       40.89296       45.49822
H         23.05941       43.16935       44.54916
N         16.96226       41.14245       43.15919
C         16.23722       42.24991       43.78264
C         15.30567       41.77409       44.88577
O         15.25119       42.41730       45.92506
C         15.50669       42.91692       42.60582
C         15.31145       41.78142       41.62715
C         16.64041       41.04403       41.74822
H         16.91989       43.01090       44.22290
H         14.59792       43.50023       42.86954
H         16.22564       43.61029       42.11275
H         14.49667       41.13118       42.00625
H         15.04718       42.08284       40.59129
H         16.49256       40.01844       41.38045
H         17.43313       41.56456       41.16854
N         14.59383       40.62503       44.75816
C         13.72342       40.08554       45.79967
C         14.51438       39.84280       47.07646
O         14.07022       40.25969       48.13664
C         13.05723       38.78676       45.30193
C         12.14845       39.06868       44.08340
C         11.53417       37.83029       43.51225
O         10.83460       37.91027       42.51515
O         11.74304       36.63111       44.08071
H         14.72082       40.07924       43.89656
H         12.90300       40.80420       46.02423
H         12.43555       38.35040       46.11540
H         13.84608       38.05157       45.03073
H         12.72601       39.53726       43.26372
H         11.33700       39.76917       44.37865
N         15.73186       39.23515       47.03059
C         16.58188       39.02249       48.18376
H         17.52317       39.59853       48.05353
H         16.10019       39.34066       49.13068
H         16.83946       37.94710       48.25954
H         16.10429       38.94959       46.12187
Ca         9.90328       35.01545       41.89552
O         12.68539       33.89341       40.95787
H         12.67630       33.25639       40.19990
H         13.63586       33.93552       41.23289
O         10.99997       34.50780       38.43559
H         10.42763       33.71600       38.59380
H         10.68725       35.17558       39.09581

Ca 1.0



