%chk=holoCaM-CaMKII.loop2.water2.frame56.chk
%nprocshared=20
%mem=10GB
%nosave
#b3lyp/svp scf=(tight,noincore,xqc) Test 
#IOP(5/87=12) Density=Current Pop=(MK,readradii) iop(6/33=2) iop(6/42=6)

holoCaM-CaMKII.loop2.water2.frame56 

   -2  1 
C         -0.16039       74.26856       87.92614
C         -1.51520       74.77823       88.33042
O         -2.38582       74.92522       87.48591
H          0.62137       75.00484       88.20832
H          0.04417       73.31173       88.45418
H         -0.10816       74.08539       86.83234
N         -1.76013       75.05226       89.63859
C         -3.05836       75.46741       90.15917
C         -3.53203       76.79398       89.58192
O         -2.80948       77.77715       89.66766
C         -2.97926       75.58199       91.69244
C         -4.31068       75.93709       92.27656
O         -4.45291       77.06388       92.99953
O         -5.27246       75.21461       92.07870
H         -0.98495       74.91008       90.30611
H         -3.79832       74.67084       89.92263
H         -2.22955       76.35185       91.97780
H         -2.65954       74.60909       92.12105
N         -4.78377       76.89156       89.04180
C         -5.35902       78.12892       88.52555
C         -6.64342       78.55294       89.25279
O         -7.16540       79.60057       88.89581
C         -5.66201       77.93596       87.03440
H         -5.36304       76.04336       88.99920
H         -4.63065       78.96250       88.62540
H         -6.06599       78.87005       86.58881
H         -4.73479       77.66193       86.48776
H         -6.40874       77.12356       86.89332
N         -7.24032       77.80122       90.23274
C         -8.56873       78.13488       90.77802
C         -8.78339       77.79633       92.25690
O         -9.84537       78.12614       92.76785
C         -9.65631       77.44469       89.92871
C         -9.55477       75.94664       89.91113
O        -10.31431       75.30191       89.20661
O         -8.59231       75.30539       90.59422
H         -6.82397       76.89097       90.45431
H         -8.73271       79.23098       90.68933
H         -9.55350       77.79811       88.88009
H        -10.66695       77.73064       90.29013
N         -7.85934       77.13935       93.00728
C         -8.04745       76.81021       94.40957
C         -9.20210       75.86145       94.65886
O        -10.07171       76.19602       95.45079
H         -6.96725       76.87171       92.58946
H         -8.18560       77.74634       94.99393
H         -7.12597       76.31284       94.78415
N         -9.24198       74.63417       94.06314
C        -10.22508       73.60217       94.40417
C         -9.53440       72.35630       94.98488
O        -10.20988       71.36415       95.22043
C        -11.13950       73.27292       93.19500
C        -10.47921       72.58747       92.03218
N        -11.20875       72.21746       90.95516
O         -9.28907       72.34418       92.05978
H         -8.50794       74.40273       93.37671
H        -10.92072       73.97426       95.18767
H        -11.61322       74.21205       92.83411
H        -11.94986       72.59857       93.54833
H        -12.22059       72.40573       90.91160
H        -10.76097       71.72962       90.16627
N         -8.19899       72.35767       95.29164
C         -7.48271       71.24023       95.89683
C         -7.15579       70.08242       94.96079
O         -6.50736       69.15283       95.41852
H         -7.66042       73.22672       95.18380
H         -8.04114       70.88158       96.78881
H         -6.50117       71.62202       96.25336
N         -7.55619       70.05492       93.65853
C         -7.28529       68.96074       92.72727
C         -6.68600       69.45929       91.41834
O         -7.22454       70.38036       90.82169
C         -8.59801       68.21449       92.39016
C         -9.12522       67.43367       93.59229
O         -9.59240       69.10626       91.94969
H         -8.12654       70.82526       93.31358
H         -6.59669       68.20702       93.17011
H         -8.38933       67.44809       91.60415
H         -9.47986       69.21587       90.97000
H         -9.36747       68.11374       94.43455
H        -10.04122       66.87787       93.30023
H         -8.36436       66.69488       93.92664
N         -5.64828       68.78398       90.84227
C         -5.20633       69.01485       89.46418
C         -6.36302       68.73713       88.51391
O         -7.03398       67.72310       88.66156
C         -3.98230       68.10956       89.10007
C         -2.75117       68.53849       89.94180
C         -3.65817       68.18772       87.58879
C         -1.50180       67.68779       89.70339
H         -5.22430       68.00484       91.36821
H         -4.88061       70.07013       89.33779
H         -4.23819       67.05002       89.32675
H         -2.99752       68.46309       91.02098
H         -2.49833       69.59810       89.72001
H         -3.41292       69.22808       87.28699
H         -2.82272       67.51706       87.31133
H         -4.51449       67.82610       86.98655
H         -0.68992       68.03533       90.37561
H         -1.71445       66.61960       89.91704
H         -1.12778       67.79278       88.66493
N         -6.58158       69.56408       87.45241
C         -7.62387       69.35548       86.45211
C         -6.98180       68.96946       85.14136
O         -5.75887       68.93974       85.06539
C         -8.42217       70.65518       86.22642
C         -8.85512       71.30357       87.49640
O        -10.02344       71.59656       87.69013
O         -7.90625       71.66416       88.37439
H         -5.93914       70.35861       87.31360
H         -8.30968       68.54103       86.77432
H         -9.29294       70.47245       85.56018
H         -7.75904       71.39689       85.72824
N         -7.72772       68.65755       84.05047
C         -7.10151       68.32318       82.78421
C         -6.33494       69.52645       82.21660
O         -5.14486       69.35849       82.00167
C         -8.10593       67.70375       81.78942
C         -7.43643       67.36287       80.48122
C         -7.81130       68.03296       79.30504
C         -6.42518       66.38672       80.42444
C         -7.18226       67.73520       78.09380
C         -5.80245       66.08851       79.20927
C         -6.17958       66.76325       78.04524
H         -8.75774       68.63468       84.13236
H         -6.36482       67.50943       82.97989
H         -8.95977       68.36948       81.60789
H         -8.54114       66.77917       82.22753
H         -8.58189       68.79378       79.32744
H         -6.12039       65.85496       81.31715
H         -7.47172       68.26050       77.19333
H         -5.02623       65.33521       79.17060
H         -5.69454       66.53374       77.10579
N         -6.89429       70.75729       81.94236
C         -6.13587       71.85467       81.34051
C         -4.90034       72.27021       82.11608
O         -4.03675       72.92077       81.54172
C         -7.13041       73.02252       81.31751
C         -8.44651       72.30358       81.15919
C         -8.27836       71.14015       82.13174
H         -5.85437       71.52203       80.31712
H         -7.16687       73.50453       82.32327
H         -6.91019       73.80423       80.55930
H         -9.35239       72.92235       81.33111
H         -8.48332       71.89362       80.12258
H         -8.42264       71.45394       83.18881
H         -9.02519       70.39013       81.84931
N         -4.78349       72.00165       83.44494
C         -3.62374       72.38743       84.23526
C         -2.48441       71.44092       83.92436
O         -1.43562       71.88764       83.48272
C         -3.97766       72.38675       85.73637
C         -5.08908       73.42136       86.01565
C         -5.52720       73.46744       87.44603
O         -6.42895       74.22415       87.76405
O         -4.96408       72.67775       88.37839
H         -5.56528       71.52864       83.92328
H         -3.32682       73.43321       83.98902
H         -3.07585       72.64973       86.33051
H         -4.31330       71.37546       86.04421
H         -5.98865       73.18307       85.41185
H         -4.73253       74.43387       85.72547
N         -2.64253       70.10030       84.10254
C         -1.61532       69.13999       83.76973
H         -0.70666       69.32419       84.37902
H         -1.98374       68.11149       83.97566
H         -1.36730       69.21325       82.68940
H         -3.53394       69.74198       84.46619
Ca        -8.23182       73.26106       89.84895
O         -6.15361       72.80236       93.04706
H         -5.75573       73.34159       93.77624
H         -5.59134       71.99006       93.01105
O         -3.66223       72.13561       91.18750
H         -3.46226       71.80324       90.27841
H         -2.77437       72.21692       91.61628

Ca 1.0



