%chk=holoCaM.loop1.water2.frame113.chk
%nprocshared=20
%mem=10GB
%nosave
#b3lyp/svp scf=(tight,noincore,xqc) Test 
#IOP(5/87=12) Density=Current Pop=(MK,readradii) iop(6/33=2) iop(6/42=6)

holoCaM.loop1.water2.frame113 

   0  1 
C         -2.03899       94.38690      -19.49558
C         -0.94179       94.54668      -20.50297
O         -1.22304       94.68111      -21.68545
H         -3.03444       94.41061      -19.98650
H         -1.92016       93.40476      -18.98779
H         -1.98044       95.19584      -18.73919
N          0.35506       94.50294      -20.09245
C          1.49143       94.53122      -21.00741
C          1.34591       93.38027      -21.99989
O          1.19479       92.23491      -21.60154
C          2.79519       94.52392      -20.18460
C          4.07410       94.34781      -20.95453
O          4.84945       93.47759      -20.59564
O          4.41956       95.11463      -22.00632
H          0.53214       94.39910      -19.08042
H          1.47641       95.49368      -21.56287
H          2.75128       93.71188      -19.42659
H          2.84689       95.49310      -19.63880
N          1.30446       93.67082      -23.32839
C          0.90710       92.78059      -24.40964
C          2.09152       92.39129      -25.28789
O          1.92159       91.51391      -26.12264
C         -0.18641       93.55153      -25.21129
C         -0.74265       92.94177      -26.50278
C         -1.48759       91.62654      -26.29184
C         -2.10934       91.16512      -27.61828
N         -2.80313       89.89017      -27.45863
H          1.50935       94.62876      -23.59562
H          0.49808       91.83921      -23.98432
H          0.24684       94.52710      -25.52500
H         -1.03619       93.77537      -24.52851
H          0.07183       92.80966      -27.24622
H         -1.45654       93.68420      -26.92751
H         -2.29633       91.77332      -25.54277
H         -0.78064       90.85716      -25.91693
H         -1.31343       91.05425      -28.38843
H         -2.83282       91.93379      -27.97490
H         -2.12349       89.15111      -27.16651
H         -3.56132       89.97993      -26.74405
H         -3.22855       89.61790      -28.37419
N          3.31679       92.98150      -25.16629
C          4.46302       92.62010      -26.00039
C          5.79207       92.61222      -25.23116
O          6.82522       92.40986      -25.85327
C          4.47931       93.47491      -27.28598
C          4.54792       94.96102      -27.08979
O          4.55877       95.50569      -25.86127
O          4.56695       95.68952      -28.06866
H          3.42050       93.77861      -24.52540
H          4.34453       91.57724      -26.36996
H          3.54665       93.26043      -27.85398
H          5.33579       93.15400      -27.91751
N          5.83704       92.71934      -23.87210
C          7.04665       92.56926      -23.07597
C          8.00868       93.73233      -23.15785
O          9.20111       93.51352      -23.31236
H          4.96134       92.81060      -23.34109
H          7.54719       91.60278      -23.30057
H          6.73907       92.52680      -22.01037
N          7.55415       94.99804      -22.96534
C          8.39412       96.17105      -22.75763
C          8.06309       96.85702      -21.42357
O          8.67585       97.87472      -21.13205
C          8.29000       97.13538      -23.95800
C          6.88981       97.41685      -24.42000
O          6.58601       97.19760      -25.58010
O          5.96605       97.90632      -23.58089
H          6.54089       95.13944      -22.92803
H          9.46787       95.88772      -22.68856
H          8.83452       96.67818      -24.81323
H          8.80698       98.08826      -23.71273
N          7.16626       96.33373      -20.53088
C          6.91460       96.90861      -19.21775
C          6.16470       98.22396      -19.21880
O          5.98750       98.75636      -18.13094
H          6.70102       95.44091      -20.72959
H          7.88532       97.03318      -18.69049
H          6.29996       96.19703      -18.62312
N          5.67149       98.80528      -20.35332
C          4.94250      100.07286      -20.33693
C          3.51489       99.88559      -20.82743
O          3.17784       98.81651      -21.31981
C          5.68562      101.15345      -21.16477
C          7.15564      101.30747      -20.73704
O          5.59585      100.89532      -22.54314
H          5.80334       98.33584      -21.25420
H          4.87495      100.44728      -19.29228
H          5.18820      102.13108      -20.98724
H          6.25852      100.19714      -22.77310
H          7.63678      102.11767      -21.32423
H          7.22647      101.54854      -19.65680
H          7.71882      100.36899      -20.92831
N          2.60657      100.88888      -20.67214
C          1.20232      100.80081      -21.06053
C          0.88817      101.94974      -22.01856
O          1.12922      103.10175      -21.68364
C          0.31238      100.78539      -19.77942
C          0.62207       99.55168      -18.87295
C         -1.19265      100.83465      -20.10044
C          0.30677       98.17239      -19.48451
H          2.91455      101.75669      -20.20480
H          0.99237       99.85354      -21.58656
H          0.54454      101.69958      -19.18981
H          0.03299       99.64079      -17.93442
H          1.69466       99.56555      -18.58573
H         -1.78298      100.84063      -19.15886
H         -1.44796      101.75542      -20.66267
H         -1.50917       99.96229      -20.70009
H          0.89127       97.97711      -20.40417
H          0.56893       97.37696      -18.75499
H         -0.77254       98.06516      -19.71566
N          0.31306      101.68923      -23.22717
C         -0.04651      102.67746      -24.23687
C         -1.54982      102.88889      -24.20701
O         -2.21253      102.34021      -23.34122
C          0.40268      102.18911      -25.65015
C          1.92220      102.02976      -25.77619
O         -0.27301      101.00618      -26.01204
H          0.03550      100.72841      -23.42831
H          0.43073      103.65899      -24.02379
H          0.13915      102.94956      -26.41157
H          0.27460      100.22847      -25.73522
H          2.17442      101.69607      -26.80718
H          2.42708      102.99902      -25.58509
H          2.29035      101.27415      -25.05640
N         -2.16225      103.67375      -25.13238
C         -3.60443      103.89699      -25.18240
C         -4.36180      102.57202      -25.27393
O         -5.21868      102.33034      -24.43594
C         -3.93351      104.83185      -26.37075
C         -5.42285      105.15871      -26.46721
O         -3.22815      106.03961      -26.20903
H         -1.57507      104.12949      -25.84581
H         -3.91679      104.41692      -24.24760
H         -3.62766      104.32101      -27.31648
H         -2.70654      106.19988      -27.03840
H         -5.59465      105.83866      -27.32841
H         -6.01965      104.23708      -26.62687
H         -5.76634      105.66323      -25.53905
N         -4.06967      101.65356      -26.23996
C         -4.73413      100.35071      -26.34197
C         -4.62623       99.55087      -25.05884
O         -5.63818       99.07599      -24.56143
C         -4.09357       99.48563      -27.45670
C         -4.50420       99.90495      -28.87024
C         -3.85964       98.96950      -29.90653
C         -4.43816       99.20042      -31.30720
N         -3.81698       98.30456      -32.28318
H         -3.31505      101.87781      -26.90647
H         -5.81592      100.48378      -26.56514
H         -4.45094       98.43650      -27.33837
H         -2.98517       99.47647      -27.34539
H         -4.21853      100.95770      -29.07956
H         -5.61074       99.81171      -28.93609
H         -4.05894       97.91025      -29.62982
H         -2.75873       99.13070      -29.91138
H         -4.27738      100.25578      -31.61697
H         -5.53372       99.00236      -31.28071
H         -2.79375       98.50789      -32.35561
H         -3.95841       97.30657      -32.00216
H         -4.26063       98.45565      -33.21778
N         -3.40959       99.30057      -24.51818
C         -3.19101       98.36419      -23.41917
C         -3.93407       98.78977      -22.16055
O         -4.38176       97.92692      -21.41820
C         -1.68162       98.20153      -23.14808
C         -0.90281       97.75545      -24.41257
C          0.57376       97.75067      -24.18079
O          1.29267       96.67769      -24.48533
O          1.15004       98.72375      -23.73592
H         -2.60821       99.77858      -24.94980
H         -3.57106       97.36422      -23.72772
H         -1.51440       97.46661      -22.32959
H         -1.30179       99.17841      -22.80855
H         -1.06510       98.43841      -25.25917
H         -1.24435       96.74828      -24.73741
N         -4.13630      100.10561      -21.87682
C         -4.87429      100.55769      -20.71887
H         -5.91518      100.17310      -20.76023
H         -4.37958      100.21034      -19.78836
H         -4.91106      101.66911      -20.70907
H         -3.77090      100.81924      -22.51301
Ca         3.15927       96.44072      -23.28195
O          4.87239       99.94045      -25.33027
H          4.75657      100.66079      -25.99868
H          4.23068      100.15874      -24.60941
O          3.06912       98.34365      -27.00196
H          2.66115       97.51969      -27.36825
H          3.91824       98.44490      -27.50190

Ca 1.0



