%chk=holoCaM.loop3.water2.frame184.chk
%nprocshared=20
%mem=10GB
%nosave
#b3lyp/svp scf=(tight,noincore,xqc) Test 
#IOP(5/87=12) Density=Current Pop=(MK,readradii) iop(6/33=2) iop(6/42=6)

holoCaM.loop3.water2.frame184 

   0  1 
C         35.72298       59.32912       80.25907
C         36.17222       60.02713       79.00316
O         36.50052       59.35081       78.04460
H         34.83091       58.70485       80.04866
H         36.54320       58.68310       80.63743
H         35.46244       60.05239       81.06210
N         36.19275       61.38801       78.95298
C         36.66179       62.22647       77.83917
C         38.17570       62.07292       77.66028
O         38.93388       62.90202       78.14404
C         36.23504       63.67386       78.18598
C         36.67288       64.79130       77.28825
O         36.26172       64.90157       76.00991
O         37.28897       65.71884       77.78667
H         35.83926       61.86965       79.79559
H         36.14707       61.96312       76.89062
H         36.60746       63.91331       79.20722
H         35.12353       63.70161       78.21855
N         38.68101       60.98661       77.00603
C         40.10609       60.66566       76.92480
C         40.87428       61.52556       75.91788
O         42.09204       61.41982       75.89122
C         40.23723       59.15048       76.63297
C         41.67343       58.59962       76.62691
C         41.71360       57.06037       76.57441
C         40.96381       56.42151       75.38905
N         41.48484       56.85755       74.09349
H         38.01542       60.31099       76.60986
H         40.54737       60.82962       77.93367
H         39.75112       58.92705       75.65950
H         39.67741       58.62041       77.43628
H         42.19228       58.91351       77.55901
H         42.23667       59.00748       75.76415
H         41.26441       56.66315       77.51093
H         42.77783       56.73963       76.54976
H         39.87797       56.65026       75.45174
H         41.06809       55.31700       75.46969
H         40.96664       56.35567       73.33663
H         41.33666       57.88342       73.96248
H         42.50218       56.62907       74.01862
N         40.25777       62.41272       75.08267
C         40.99085       63.28009       74.15348
C         40.90209       64.74851       74.58604
O         41.53321       65.58484       73.95541
C         40.52240       63.03824       72.69559
C         39.08291       63.40261       72.51810
O         38.78519       64.58304       72.43714
O         38.14797       62.52453       72.92341
H         39.23445       62.50563       75.12622
H         42.07384       63.03140       74.17386
H         40.66292       61.96615       72.43606
H         41.14069       63.63453       71.98892
N         40.19581       65.12165       75.69488
C         40.20868       66.45219       76.27494
C         39.59052       67.52232       75.41177
O         40.24831       68.52930       75.18950
H         39.67001       64.41922       76.22736
H         41.25285       66.72515       76.54510
H         39.63070       66.42548       77.22081
N         38.32126       67.39888       74.91965
C         37.65353       68.46970       74.17910
C         36.26319       68.81615       74.74056
O         35.61198       69.68377       74.17616
C         37.62665       68.12980       72.67600
C         36.52946       67.18901       72.25178
N         35.65115       67.57368       71.29489
O         36.43223       66.08239       72.75659
H         37.83243       66.50486       75.04971
H         38.27089       69.39221       74.24680
H         38.61857       67.71843       72.38460
H         37.49824       69.08091       72.11589
H         35.72728       68.49895       70.84618
H         34.89906       66.94626       70.98477
N         35.75030       68.19823       75.84977
C         34.47427       68.54761       76.46450
C         33.28616       67.73764       75.96656
O         32.20131       67.94842       76.49224
H         36.33109       67.53047       76.36602
H         34.27871       69.63710       76.35883
H         34.55855       68.35096       77.55572
N         33.38832       66.81740       74.96494
C         32.25471       66.05540       74.43479
C         32.53855       64.56289       74.42786
O         33.64971       64.15322       74.11881
C         31.97354       66.51805       72.99864
C         31.35657       67.89343       72.98316
C         32.11068       69.01513       72.61167
C         30.00350       68.05782       73.33372
C         31.52235       70.28385       72.59390
C         29.41287       69.32389       73.29824
C         30.17240       70.44282       72.92875
O         29.61707       71.67091       72.88846
H         34.30223       66.68052       74.50851
H         31.32413       66.22365       75.02349
H         31.26529       65.83136       72.48224
H         32.92777       66.49719       72.43375
H         33.15505       68.90859       72.34871
H         29.40058       67.20246       73.61593
H         32.11607       71.14419       72.31440
H         28.36589       69.43321       73.55482
H         28.68396       71.82126       73.09787
N         31.52582       63.68829       74.68846
C         31.64227       62.23373       74.65445
C         30.70007       61.68660       73.58674
O         29.51197       61.98298       73.62317
C         31.33843       61.66866       76.07485
C         32.46627       62.12925       77.04141
C         31.21778       60.13071       76.06523
C         32.25814       61.73047       78.50146
H         30.59503       64.07421       74.91704
H         32.67497       61.91656       74.39128
H         30.35982       62.07500       76.41647
H         32.54094       63.23719       77.01896
H         33.44061       61.71404       76.69876
H         32.17102       59.66222       75.75292
H         30.93933       59.74641       77.06665
H         30.40840       59.80087       75.38099
H         31.30798       62.15795       78.88377
H         32.25326       60.62957       78.62829
H         33.09898       62.12883       79.10830
N         31.16932       60.83145       72.63110
C         30.34783       60.21842       71.58953
C         30.14348       58.74165       71.88716
O         30.61034       58.27995       72.91614
C         31.01640       60.43814       70.21819
O         32.28645       59.83642       70.17384
H         32.16040       60.55016       72.67335
H         29.33796       60.68321       71.56069
H         31.13616       61.52570       70.02901
H         30.36774       60.05481       69.39684
H         32.20376       59.00574       69.63572
N         29.43308       57.93485       71.05178
C         29.18631       56.51899       71.32547
C         30.48240       55.74305       71.47321
O         30.65398       55.06259       72.47378
C         28.34226       55.89336       70.21118
H         29.04096       58.34580       70.18932
H         28.60106       56.42631       72.26886
H         28.13244       54.82752       70.44830
H         27.37189       56.42698       70.12726
H         28.86831       55.94653       69.23448
N         31.45096       55.82863       70.51800
C         32.72493       55.11737       70.58966
C         33.43717       55.37928       71.90051
O         33.82656       54.42304       72.55780
C         33.62532       55.53246       69.42025
H         31.28012       56.45129       69.71382
H         32.54122       54.02321       70.50000
H         34.58687       54.97663       69.46098
H         33.12733       55.29694       68.45578
H         33.83993       56.62234       69.45506
N         33.61012       56.64852       72.36181
C         34.28063       56.94710       73.62411
C         33.60360       56.22860       74.78316
O         34.24887       55.41113       75.42395
C         34.29301       58.46263       73.89276
C         35.12355       59.24990       72.87118
C         35.07738       60.70573       73.21427
O         35.46310       61.10921       74.43757
O         34.67223       61.52358       72.40366
H         33.22955       57.42244       71.79578
H         35.33477       56.59324       73.56364
H         34.72881       58.63883       74.90183
H         33.25228       58.84558       73.88783
H         34.74214       59.10274       71.83821
H         36.17861       58.90540       72.91078
N         32.30460       56.48170       75.10195
C         31.58635       55.81927       76.16964
H         30.70167       55.30060       75.74312
H         32.21050       55.07142       76.70041
H         31.23666       56.57723       76.90159
H         31.78672       57.17892       74.56362
Ca        36.68905       63.51716       74.30080
O         36.63035       63.38203       70.24234
H         36.40922       64.23087       69.78276
H         35.92166       62.75188       69.95729
O         33.95497       64.37388       71.20979
H         33.14151       63.86040       71.44186
H         33.64867       65.02384       70.52945

Ca 1.0



