%chk=holoCaM-CaMKII.loop4.water2.frame292.chk
%nprocshared=20
%mem=10GB
%nosave
#b3lyp/svp scf=(tight,noincore,xqc) Test 
#IOP(5/87=12) Density=Current Pop=(MK,readradii) iop(6/33=2) iop(6/42=6)

holoCaM-CaMKII.loop4.water2.frame292 

   -3  1 
C         34.77827       49.89138       79.34927
C         33.63864       50.63614       79.98425
O         32.52526       50.54085       79.49596
H         35.72742       50.04899       79.90503
H         34.55491       48.80418       79.34168
H         34.92120       50.24455       78.30683
N         33.84670       51.39102       81.09535
C         32.79693       52.13440       81.78679
C         32.24119       53.25188       80.90365
O         33.02509       54.05115       80.41068
C         33.38693       52.71869       83.08071
C         32.37936       53.36444       83.97643
O         32.81198       53.95518       85.09611
O         31.18675       53.34781       83.72411
H         34.80260       51.41399       81.48500
H         31.99783       51.42623       82.08366
H         34.17107       53.46233       82.82297
H         33.85781       51.90141       83.67110
N         30.89669       53.37026       80.67221
C         30.30767       54.36348       79.76618
C         29.42509       55.39589       80.48962
O         29.09815       56.38518       79.84790
C         29.57121       53.58707       78.61834
C         30.63321       52.87384       77.73732
C         28.66151       54.47045       77.74229
C         30.06344       51.84778       76.75705
H         30.26057       52.69993       81.12719
H         31.11283       54.98102       79.30844
H         28.91393       52.82700       79.09821
H         31.33416       52.31949       78.38266
H         31.22534       53.63319       77.17964
H         29.24445       55.27593       77.24902
H         28.14505       53.86963       76.96812
H         27.84712       54.91518       78.34993
H         29.38445       52.31017       76.01513
H         30.90063       51.37722       76.19833
H         29.52413       51.05173       77.31185
N         29.03132       55.28944       81.79662
C         28.25527       56.33596       82.48093
C         28.97438       56.89796       83.70578
O         28.41434       57.76288       84.36551
C         26.82620       55.85256       82.81750
C         26.69437       54.79436       83.88029
O         25.58393       54.36559       84.15019
O         27.76576       54.27618       84.50725
H         29.28438       54.44933       82.32481
H         28.10255       57.19956       81.79781
H         26.36142       55.47963       81.87748
H         26.23099       56.72843       83.15718
N         30.23166       56.49709       84.04612
C         30.98194       57.05664       85.15539
C         30.41617       56.69607       86.50974
O         30.15472       57.58831       87.30297
H         30.72484       55.81111       83.46124
H         31.06310       58.15864       85.03497
H         32.01291       56.64162       85.12339
N         30.28037       55.38830       86.86226
C         29.94707       54.92759       88.21113
C         31.09233       54.09486       88.80041
O         30.92907       53.52261       89.86958
C         28.60455       54.16355       88.19730
C         28.55273       52.89896       87.37916
O         29.62707       52.43523       86.71385
O         27.50509       52.27662       87.32448
H         30.48364       54.67729       86.14520
H         29.79620       55.78998       88.89639
H         27.82355       54.85552       87.81360
H         28.33663       53.90009       89.24414
N         32.29264       54.00562       88.15838
C         33.42654       53.21161       88.58746
C         33.11448       51.73673       88.61402
O         33.51146       51.08113       89.56028
H         32.44208       54.54870       87.30401
H         33.80637       53.55683       89.57336
H         34.24169       53.35585       87.84360
N         32.47086       51.14807       87.56128
C         32.20168       49.70563       87.45037
C         31.82265       49.33853       86.01292
O         31.50343       50.21012       85.22085
C         31.07118       49.19707       88.39814
C         31.36484       49.31814       89.90337
C         30.34229       48.66366       90.79745
N         30.53206       48.67289       92.13817
O         29.35098       48.12268       90.32969
H         32.23937       51.76497       86.77229
H         33.15607       49.17485       87.65571
H         30.92416       48.11453       88.18954
H         30.11902       49.72480       88.16718
H         31.38706       50.38536       90.19666
H         32.34248       48.83054       90.10863
H         31.36759       49.11915       92.54644
H         29.85096       48.22839       92.77095
N         31.89090       48.03307       85.60262
C         31.59576       47.62088       84.23234
C         30.47982       46.59050       84.24968
O         30.67047       45.49058       84.74612
C         32.88320       47.09831       83.53713
C         32.60191       46.60072       82.10913
C         33.94265       48.21375       83.47387
H         32.20167       47.31435       86.27127
H         31.24978       48.49090       83.64027
H         33.29787       46.24900       84.12411
H         31.88537       45.75393       82.12018
H         32.18747       47.41789       81.48192
H         33.54046       46.23446       81.64049
H         34.87072       47.84149       82.99079
H         33.56210       49.07904       82.88810
H         34.20987       48.56742       84.49146
N         29.25991       46.92055       83.73876
C         28.10781       46.02013       83.72583
C         28.26689       44.99879       82.59115
O         29.20896       45.11524       81.82440
C         26.84594       46.90940       83.51576
C         25.48782       46.33834       83.84861
N         24.38737       47.09764       83.64078
O         25.36341       45.23266       84.34719
H         29.13144       47.88476       83.39869
H         28.03583       45.53471       84.72403
H         26.85206       47.28867       82.46983
H         26.93254       47.78785       84.19129
H         24.47116       48.04440       83.24338
H         23.45009       46.74312       83.88069
N         27.37267       43.98939       82.39789
C         27.35534       43.12468       81.21671
C         27.03384       43.95090       79.97835
O         27.71539       43.80714       78.97271
C         26.29609       42.01648       81.40839
C         26.20124       41.04333       80.25174
C         27.31423       40.28224       79.84899
C         24.97792       40.86774       79.58204
C         27.20159       39.36480       78.79795
C         24.86670       39.94646       78.53662
C         25.97863       39.18999       78.14191
O         25.88210       38.29136       77.14093
H         26.64575       43.83838       83.10176
H         28.34236       42.62478       81.09979
H         25.30595       42.49005       81.58929
H         26.56116       41.43458       82.31770
H         28.26796       40.39089       80.34875
H         24.10398       41.43552       79.87521
H         28.06419       38.78266       78.49778
H         23.91397       39.81783       78.03843
H         25.05051       38.13030       76.67209
N         26.02670       44.87735       80.00935
C         25.64737       45.73757       78.88106
C         26.78898       46.64448       78.38866
O         26.61145       47.31108       77.37978
C         24.39727       46.56418       79.29371
C         23.73556       47.36284       78.15518
C         22.46725       48.04930       78.59285
O         22.01965       47.95324       79.86111
O         21.83119       48.70568       77.78403
H         25.49418       44.96656       80.88896
H         25.35834       45.06884       78.04103
H         24.66515       47.25170       80.12779
H         23.63574       45.84346       79.66749
H         23.48659       46.66801       77.32449
H         24.41930       48.14945       77.78101
N         28.00082       46.68553       79.01053
C         29.13795       47.47206       78.55729
C         30.19202       46.53273       78.01183
O         30.55468       46.67250       76.85204
C         29.66465       48.31126       79.73167
C         28.60129       49.32590       80.16015
C         28.97624       50.12364       81.36229
O         28.10827       51.05035       81.78253
O         30.02876       49.95542       81.95398
H         28.15640       46.12781       79.85220
H         28.85375       48.16368       77.73139
H         30.58485       48.85388       79.43071
H         29.91087       47.64404       80.58712
H         27.65082       48.80784       80.40612
H         28.41665       50.02909       79.31946
N         30.69453       45.52138       78.77313
C         31.63832       44.54021       78.28140
H         32.55213       44.55957       78.90934
H         31.17621       43.53195       78.34772
H         31.92570       44.71991       77.22450
H         30.37654       45.41326       79.74222
Ca        28.45919       52.41530       83.50377
O         27.60820       49.64867       86.00461
H         27.80465       49.45569       86.95558
H         26.67374       49.97664       86.00754
O         25.75865       50.75433       83.38061
H         25.90311       51.60889       83.85805
H         25.03742       50.30980       83.89038

Ca 1.0



