%chk=holoCaM.loop3.water2.frame136.chk
%nprocshared=20
%mem=10GB
%nosave
#b3lyp/svp scf=(tight,noincore,xqc) Test 
#IOP(5/87=12) Density=Current Pop=(MK,readradii) iop(6/33=2) iop(6/42=6)

holoCaM.loop3.water2.frame136 

   0  1 
C         22.94035      110.03135       -2.72058
C         22.45325      110.36049       -1.34330
O         23.26953      110.52712       -0.44774
H         24.04941      109.96620       -2.73864
H         22.52320      109.05174       -3.03703
H         22.61221      110.81849       -3.42985
N         21.11554      110.43515       -1.09528
C         20.56709      110.68749        0.22869
C         19.94530      109.39665        0.70560
O         19.01559      108.91167        0.07328
C         19.55116      111.84493        0.17308
C         19.04416      112.26581        1.52704
O         19.49101      111.68703        2.65712
O         18.23300      113.17027        1.60527
H         20.45892      110.24215       -1.86849
H         21.38187      110.98089        0.92629
H         18.69035      111.55327       -0.46889
H         20.03545      112.73032       -0.28801
N         20.47881      108.73350        1.77036
C         20.05536      107.38475        2.12522
C         18.77462      107.37134        2.94289
O         18.22727      106.29404        3.13336
C         21.19505      106.61226        2.82332
C         22.52806      106.61401        2.03485
C         22.41085      106.06263        0.60335
C         23.77341      106.07516       -0.10369
N         23.65662      105.58337       -1.47648
H         21.29708      109.14424        2.24355
H         19.83412      106.83614        1.18372
H         20.87062      105.55991        2.97768
H         21.38807      107.06458        3.82054
H         23.26112      106.00273        2.60402
H         22.93277      107.64664        1.98035
H         21.71872      106.69678        0.00994
H         22.01615      105.02424        0.63487
H         24.48923      105.43518        0.45793
H         24.17205      107.11465       -0.12484
H         24.60077      105.59472       -1.92572
H         23.29155      104.60337       -1.47899
H         23.01534      106.20076       -2.02629
N         18.21664      108.52139        3.42468
C         16.90972      108.57541        4.07003
C         15.91090      109.35739        3.20556
O         14.74421      109.41258        3.56754
C         17.04962      109.09738        5.51513
C         17.57274      110.49881        5.60376
O         18.74903      110.74797        6.21100
O         16.91768      111.42173        5.15557
H         18.71145      109.41265        3.29601
H         16.48808      107.55028        4.15640
H         17.74753      108.42155        6.05743
H         16.06719      109.05298        6.03260
N         16.28068      109.90681        2.00542
C         15.35481      110.44311        1.02071
C         14.64492      111.73281        1.36741
O         13.85421      112.16128        0.53777
H         17.25495      109.84362        1.69140
H         14.59710      109.66193        0.79428
H         15.91999      110.63910        0.08255
N         14.83151      112.41419        2.53405
C         14.04955      113.61034        2.84488
C         14.33483      114.81538        1.93371
O         13.58801      115.77890        2.03360
C         14.15346      113.99639        4.34383
C         15.55279      114.33372        4.90062
N         15.52269      115.56445        5.68353
O         16.51671      114.43101        3.90517
H         15.47736      112.03828        3.23793
H         12.98006      113.34091        2.68925
H         13.76581      113.15849        4.96207
H         13.46297      114.85107        4.51796
H         14.91042      115.41805        6.51722
H         16.48766      115.77188        6.02668
N         15.37606      114.85670        1.04463
C         15.63225      115.99060        0.15361
C         16.88562      116.78022        0.51472
O         17.17456      117.75349       -0.16651
H         16.02628      114.06378        0.99174
H         14.79002      116.71515        0.18473
H         15.70178      115.61419       -0.88912
N         17.62510      116.47240        1.61478
C         18.71663      117.27327        2.15620
C         19.93430      116.41320        2.43320
O         19.80071      115.39583        3.09607
C         18.24689      117.86233        3.50246
C         17.23485      118.96451        3.32452
C         15.90497      118.81026        3.74796
C         17.63789      120.18452        2.75619
C         14.99471      119.86375        3.60494
C         16.73145      121.23758        2.62400
C         15.40551      121.08165        3.05001
O         14.52309      122.09467        2.93696
H         17.34599      115.66575        2.17237
H         19.00167      118.11048        1.48242
H         19.10403      118.30281        4.05744
H         17.83650      117.03868        4.12913
H         15.57121      117.87943        4.18657
H         18.66223      120.32679        2.43416
H         13.97107      119.73685        3.93393
H         17.06421      122.17553        2.19749
H         14.77510      122.95688        2.57575
N         21.17524      116.81311        2.03419
C         22.39836      116.10682        2.40467
C         23.25121      117.02065        3.27554
O         23.74302      118.03054        2.78983
C         23.14362      115.62710        1.12263
C         22.30107      114.52542        0.42893
C         24.55730      115.11164        1.44219
C         22.89581      114.01919       -0.88596
H         21.26773      117.68537        1.49066
H         22.16450      115.20511        3.01378
H         23.26140      116.49630        0.43736
H         21.29126      114.92849        0.20300
H         22.18080      113.65885        1.11771
H         24.50590      114.23460        2.11367
H         25.10781      114.83474        0.52258
H         25.16664      115.90900        1.90919
H         23.87128      113.51674       -0.72653
H         22.21303      113.26834       -1.33233
H         23.01927      114.85886       -1.60046
N         23.46554      116.71181        4.58982
C         24.34928      117.48424        5.46374
C         25.80710      117.24744        5.09101
O         26.07477      116.47631        4.18451
C         24.13499      117.07371        6.93688
O         24.54112      115.74872        7.15992
H         22.97318      115.89600        4.98463
H         24.08806      118.56249        5.38473
H         23.06857      117.22484        7.22709
H         24.72205      117.72783        7.61469
H         23.72526      115.18949        7.13740
N         26.81504      117.84124        5.78804
C         28.22033      117.51563        5.56293
C         28.48899      116.05687        5.90912
O         29.02300      115.33638        5.07714
C         29.12189      118.41613        6.41328
H         26.57430      118.52190        6.52446
H         28.48294      117.71090        4.49833
H         28.91750      118.28475        7.49658
H         30.18915      118.17554        6.21637
H         28.95060      119.47991        6.14328
N         28.13133      115.55762        7.13120
C         28.39680      114.18465        7.57143
C         27.69184      113.09711        6.75614
O         27.93148      111.93047        7.03671
C         28.00744      114.03299        9.04807
H         27.68258      116.20519        7.79771
H         29.49311      114.01043        7.49525
H         28.27007      113.01990        9.42154
H         28.55853      114.77647        9.66286
H         26.91592      114.19466        9.17986
N         26.85758      113.38251        5.71736
C         26.27427      112.37259        4.84333
C         27.03550      112.38348        3.53282
O         27.57074      111.34981        3.15523
C         24.77115      112.64670        4.62976
C         23.94524      112.35566        5.88926
C         22.49003      112.66633        5.66771
O         21.86591      112.10663        4.78008
O         21.86062      113.55113        6.46282
H         26.67531      114.36077        5.47253
H         26.38485      111.34707        5.26370
H         24.39300      111.98578        3.81817
H         24.62611      113.70446        4.32160
H         24.32608      112.95431        6.74205
H         24.04275      111.27953        6.14910
N         27.16580      113.52160        2.80146
C         27.93135      113.56813        1.57614
H         28.98518      113.27936        1.77906
H         27.49225      112.87699        0.82679
H         27.92159      114.59965        1.16428
H         26.73060      114.38916        3.13260
Ca        18.45656      113.70490        4.86299
O         19.80851      116.31389        6.04180
H         20.40736      117.10060        6.00362
H         20.36624      115.56670        5.71161
O         17.54216      113.90477        7.74924
H         17.96570      113.01155        7.79829
H         18.29651      114.52824        7.59869

Ca 1.0



