%chk=holoCaM.loop2.water2.frame173.chk
%nprocshared=20
%mem=10GB
%nosave
#b3lyp/svp scf=(tight,noincore,xqc) Test 
#IOP(5/87=12) Density=Current Pop=(MK,readradii) iop(6/33=2) iop(6/42=6)

holoCaM.loop2.water2.frame173 

   -2  1 
C          7.20219       67.19165       -0.56686
C          7.98639       66.27772        0.33303
O          8.80492       66.74037        1.11272
H          6.11908       67.08546       -0.33591
H          7.49057       68.25297       -0.42038
H          7.36447       66.91104       -1.62895
N          7.74588       64.94319        0.28309
C          8.34327       63.95585        1.17502
C          9.85794       63.83623        1.04693
O         10.35328       63.64215       -0.05425
C          7.70458       62.58608        0.88717
C          8.23898       61.54999        1.81517
O          8.78543       60.55065        1.37738
O          8.15259       61.74994        3.13973
H          7.03956       64.62030       -0.39811
H          8.08334       64.22968        2.22191
H          7.89262       62.28341       -0.16634
H          6.60757       62.65573        1.04279
N         10.63556       63.83888        2.17470
C         12.07851       63.61248        2.17747
C         12.50968       62.39278        3.00736
O         13.68108       62.04991        2.91972
C         12.78150       64.85922        2.72956
H         10.17282       63.98808        3.07760
H         12.43128       63.44608        1.13686
H         12.47554       65.03994        3.78354
H         13.88554       64.73551        2.70308
H         12.51428       65.75235        2.12655
N         11.67902       61.73684        3.88114
C         12.15243       60.67731        4.78535
C         11.20535       59.47042        4.91482
O         11.54532       58.54656        5.64119
C         12.49032       61.30480        6.15417
C         11.35886       62.08675        6.75462
O         10.31046       61.53928        7.03576
O         11.50240       63.40525        6.98822
H         10.72867       62.09855        4.03076
H         13.11092       60.25463        4.41002
H         13.34141       62.00511        6.00686
H         12.82643       60.51813        6.86414
N         10.04277       59.37347        4.21195
C          9.17445       58.19911        4.20002
C          8.38543       57.91187        5.46982
O          7.65399       56.93116        5.45980
H          9.80757       60.12491        3.56623
H          9.78133       57.30753        3.93213
H          8.41702       58.33881        3.39731
N          8.44871       58.69056        6.58793
C          7.69204       58.39509        7.81023
C          6.17346       58.62086        7.69882
O          5.49363       58.44480        8.70082
C          8.29170       59.14790        9.02162
C          8.20788       60.64948        9.01108
N          8.72163       61.33573       10.05709
O          7.69131       61.25042        8.08229
H          9.09986       59.48210        6.59396
H          7.85254       57.32275        8.06231
H          9.36503       58.86914        9.10454
H          7.78193       58.79503        9.94449
H          9.16594       60.84065       10.84294
H          8.67963       62.35850       10.09630
N          5.55844       58.95391        6.52556
C          4.11383       59.08614        6.38222
C          3.52209       60.37606        6.92196
O          2.31420       60.52885        6.80212
H          6.10915       59.01965        5.66416
H          3.61426       58.20362        6.83788
H          3.87098       59.07931        5.29738
N          4.27874       61.36046        7.48584
C          3.72994       62.63706        7.94559
C          4.37020       63.80253        7.20371
O          5.29293       63.59957        6.42874
C          3.95464       62.78256        9.47599
C          3.12892       61.75959       10.25667
O          5.31195       62.61537        9.80246
H          5.29041       61.21618        7.58656
H          2.63849       62.69988        7.74228
H          3.60565       63.77840        9.83228
H          5.77983       63.45350        9.55127
H          3.29092       61.89935       11.34704
H          2.04751       61.90571       10.04540
H          3.41576       60.72268        9.98415
N          3.94841       65.07483        7.44865
C          4.61853       66.26520        6.94373
C          5.41708       66.82772        8.09600
O          4.86745       67.09384        9.15691
C          3.61361       67.29934        6.33844
C          3.09650       66.78007        4.96983
C          4.27970       68.68612        6.16751
C          2.05949       67.68359        4.29451
H          3.18651       65.21696        8.12974
H          5.34577       66.00943        6.14139
H          2.76401       67.43129        7.04412
H          2.63725       65.77867        5.10761
H          3.95436       66.67752        4.27029
H          5.14696       68.62957        5.47776
H          3.56091       69.43986        5.79216
H          4.62461       69.08325        7.14479
H          1.16845       67.80440        4.94378
H          2.47779       68.68101        4.04809
H          1.74501       67.22485        3.33313
N          6.74241       67.06182        7.91811
C          7.62704       67.60951        8.92869
C          7.90270       69.06199        8.61221
O          7.36753       69.58134        7.64485
C          8.90853       66.75153        8.95210
C          8.61529       65.40504        9.55059
O          8.50137       64.28821        8.80667
O          8.44455       65.31962       10.75591
H          7.14891       66.90172        6.98289
H          7.14896       67.61189        9.93416
H          9.71355       67.21336        9.56270
H          9.30067       66.65315        7.91540
N          8.67915       69.80554        9.44142
C          8.91086       71.23369        9.26159
C          9.52608       71.57078        7.89624
O          8.88903       72.34683        7.19639
C          9.70522       71.79303       10.46779
C         10.30232       73.15312       10.20684
C          9.49882       74.26139        9.89164
C         11.69899       73.30763       10.25825
C         10.09065       75.50201        9.62759
C         12.28381       74.54562        9.99593
C         11.48129       75.64295        9.67940
H          9.08866       69.33734       10.26498
H          7.92477       71.75497        9.28961
H         10.51610       71.09705       10.74556
H          9.03779       71.82234       11.35676
H          8.42165       74.16389        9.84168
H         12.33947       72.46674       10.49519
H          9.47271       76.35450        9.37901
H         13.36032       74.64962       10.03546
H         11.93920       76.60103        9.47317
N         10.72410       71.09124        7.42360
C         11.31285       71.52523        6.15401
C         10.48836       71.22883        4.91264
O         10.87816       71.64634        3.83069
C         12.60449       70.70885        6.05366
C         12.96824       70.50953        7.50341
C         11.61198       70.19087        8.12268
H         11.50970       72.61727        6.24712
H         12.36659       69.69113        5.66110
H         13.38581       71.16124        5.40679
H         13.74959       69.74406        7.69063
H         13.31423       71.49141        7.90067
H         11.28803       69.14653        7.91517
H         11.69964       70.36280        9.20220
N          9.37012       70.46432        4.98787
C          8.60176       70.01323        3.84345
C          7.41539       70.93154        3.67449
O          7.22727       71.46153        2.58895
C          8.19274       68.54468        4.07016
C          9.44147       67.66677        4.28936
C          9.10508       66.24993        4.60861
O          7.83013       65.82022        4.60357
O         10.00312       65.48208        4.90896
H          9.08031       70.09506        5.90050
H          9.21315       70.04120        2.91236
H          7.61021       68.17108        3.19988
H          7.54916       68.47810        4.97512
H         10.02151       68.04980        5.15522
H         10.09354       67.68943        3.38993
N          6.61708       71.22635        4.73837
C          5.52516       72.17318        4.69025
H          4.59283       71.67632        5.02553
H          5.75011       73.01477        5.38057
H          5.36876       72.58729        3.67328
H          6.81754       70.79982        5.64965
Ca         8.37636       63.95929        6.58917
O          5.70945       64.06215        3.65668
H          5.51936       65.01480        3.83917
H          5.43973       63.93706        2.71434
O          6.25553       61.47316        5.03237
H          5.98631       60.94306        4.24024
H          7.11653       61.08110        5.32678

Ca 1.0



