%chk=holoCaM-CaMKII.loop2.water2.frame264.chk
%nprocshared=20
%mem=10GB
%nosave
#b3lyp/svp scf=(tight,noincore,xqc) Test 
#IOP(5/87=12) Density=Current Pop=(MK,readradii) iop(6/33=2) iop(6/42=6)

holoCaM-CaMKII.loop2.water2.frame264 

   -2  1 
C         77.65211       25.54848       56.17130
C         78.98958       26.16218       55.89007
O         80.00118       25.58222       56.24913
H         76.90655       25.88639       55.41844
H         77.71372       24.44124       56.10708
H         77.31469       25.85511       57.18064
N         79.06137       27.33738       55.21378
C         80.30886       27.95957       54.79528
C         81.19385       28.39928       55.96118
O         80.70011       28.81192       57.00061
C         79.98589       29.11230       53.83310
C         81.19836       29.73678       53.24116
O         81.32548       31.07472       53.25685
O         82.04336       29.04437       52.70071
H         78.17385       27.77989       54.92736
H         80.86754       27.20373       54.19741
H         79.37683       29.89428       54.33363
H         79.39821       28.68752       52.99146
N         82.54409       28.27249       55.82708
C         83.55235       28.53449       56.84735
C         84.67529       29.45822       56.34213
O         85.64714       29.64554       57.06173
C         84.14716       27.16804       57.20803
H         82.88669       27.89632       54.93781
H         83.10230       28.97263       57.76418
H         84.59083       26.69109       56.30731
H         84.93126       27.25054       57.98688
H         83.33824       26.50477       57.58465
N         84.63818       30.01063       55.09434
C         85.76478       30.68459       54.44901
C         85.33015       31.90756       53.63648
O         86.03366       32.90718       53.68629
C         86.58540       29.64333       53.63786
C         85.82011       28.76480       52.69545
O         86.37234       27.61851       52.25741
O         84.67862       29.02279       52.38711
H         83.82599       29.80591       54.51176
H         86.49777       31.04804       55.20488
H         87.01552       28.94461       54.38491
H         87.43435       30.11524       53.09574
N         84.21296       31.89893       52.84758
C         83.79228       33.00642       52.00223
C         83.94706       32.66323       50.53031
O         83.94859       33.58491       49.72722
H         83.63221       31.06549       52.81943
H         84.44010       33.88779       52.19190
H         82.75085       33.31916       52.24079
N         84.13184       31.37794       50.09759
C         84.62565       31.03933       48.76900
C         83.55308       30.53210       47.79107
O         83.91301       30.15125       46.68593
C         85.84198       30.08246       48.90389
C         85.57363       28.68434       49.45788
N         86.59973       27.76697       48.96717
O         84.31820       28.23138       49.09710
H         84.01838       30.59978       50.75145
H         85.04272       31.95068       48.29284
H         86.60714       30.52530       49.57846
H         86.29211       29.97801       47.89667
H         87.50997       28.01064       49.41432
H         86.37229       26.78955       49.23299
N         82.22149       30.57914       48.08465
C         81.15293       30.26176       47.13257
C         80.96505       28.79494       46.73123
O         80.08446       28.53796       45.92338
H         81.94081       30.98894       48.98335
H         81.30697       30.87950       46.22231
H         80.18812       30.57379       47.58805
N         81.73022       27.79056       47.23533
C         81.57990       26.36441       46.93185
C         81.65264       25.52347       48.19885
O         82.48711       25.79685       49.03743
C         82.71748       25.87004       45.99462
C         82.50762       26.34292       44.56004
O         83.99797       26.28972       46.40716
H         82.47642       28.05180       47.86857
H         80.61536       26.14660       46.42009
H         82.67453       24.75622       45.95383
H         84.12463       26.06137       47.36003
H         81.48451       26.08556       44.21131
H         82.66336       27.43781       44.47917
H         83.23386       25.82187       43.89920
N         80.91414       24.39117       48.35127
C         81.14941       23.46983       49.46586
C         82.54001       22.85379       49.38594
O         82.92009       22.30037       48.36395
C         80.03298       22.39453       49.57160
C         78.74094       23.09713       50.05935
C         80.42616       21.26019       50.55167
C         77.49328       22.24882       49.84972
H         80.20951       24.15210       47.63648
H         81.09470       24.03127       50.41626
H         79.86740       21.94453       48.56860
H         78.57948       24.03262       49.48419
H         78.84284       23.37820       51.13402
H         80.78306       21.67937       51.51560
H         79.58935       20.57044       50.76878
H         81.23916       20.64153       50.11322
H         76.60240       22.82705       50.17107
H         77.39403       22.01665       48.76816
H         77.52580       21.30555       50.42788
N         83.29600       22.84040       50.51947
C         84.57241       22.16769       50.69576
C         84.35834       21.00283       51.63370
O         83.25837       20.84634       52.12778
C         85.59665       23.13990       51.29535
C         85.80123       24.29761       50.39782
O         85.01842       25.36879       50.55203
O         86.68412       24.29289       49.55479
H         82.89068       23.24445       51.36484
H         84.93566       21.76607       49.72540
H         86.57420       22.65356       51.48017
H         85.22376       23.53281       52.26937
N         85.33654       20.09388       51.87675
C         85.06879       18.85971       52.60848
C         84.61389       19.05925       54.05109
O         83.58611       18.48398       54.38394
C         86.25027       17.87428       52.48790
C         85.90435       16.46768       52.94701
C         84.77737       15.79747       52.42474
C         86.71970       15.79350       53.87427
C         84.46373       14.50152       52.83599
C         86.41108       14.48411       54.26722
C         85.28078       13.84275       53.75362
H         86.25377       20.22566       51.42447
H         84.22288       18.38344       52.07064
H         87.14080       18.26732       53.01984
H         86.50964       17.79942       51.41076
H         84.12802       16.26693       51.70013
H         87.60334       16.26938       54.28001
H         83.58789       14.00705       52.43517
H         87.04886       13.96216       54.96861
H         85.03886       12.83329       54.06062
N         85.27330       19.81989       54.98218
C         84.81658       19.91894       56.36241
C         83.47991       20.64313       56.48643
O         82.81570       20.47896       57.49951
C         85.98815       20.58851       57.08545
C         86.60902       21.45379       56.00393
C         86.47849       20.58852       54.74843
H         84.67971       18.90138       56.79126
H         85.73821       21.10405       58.03801
H         86.73650       19.79415       57.30323
H         85.95307       22.34377       55.88521
H         87.64722       21.79780       56.20869
H         86.40334       21.26849       53.87313
H         87.32967       19.88876       54.62919
N         83.00375       21.42339       55.48118
C         81.66513       22.00953       55.45953
C         80.65042       20.91261       55.15219
O         79.64815       20.80630       55.84356
C         81.62818       23.13503       54.39822
C         82.63515       24.25528       54.78433
C         82.99103       25.20351       53.67917
O         83.95434       26.11754       53.87646
O         82.48503       25.11631       52.58162
H         83.61689       21.59901       54.67157
H         81.42423       22.49660       56.43136
H         80.60530       23.56711       54.30408
H         81.89903       22.69047       53.42168
H         83.60081       23.81182       55.08663
H         82.25161       24.82494       55.65432
N         80.88342       20.02655       54.14331
C         79.99087       18.94837       53.78395
H         79.03560       19.36030       53.40099
H         80.45576       18.33448       52.97851
H         79.80819       18.28980       54.65804
H         81.75535       20.09221       53.62088
Ca        83.67094       27.08236       50.90983
O         80.11258       26.14490       51.57749
H         80.23119       25.28614       52.04278
H         79.13948       26.30380       51.61883
O         81.26105       28.60840       50.09529
H         81.22504       29.56028       50.34286
H         80.59435       28.22102       50.70247

Ca 1.0



