%chk=holoCaM-CaMKII.loop1.water2.frame70.chk
%nprocshared=20
%mem=10GB
%nosave
#b3lyp/svp scf=(tight,noincore,xqc) Test 
#IOP(5/87=12) Density=Current Pop=(MK,readradii) iop(6/33=2) iop(6/42=6)

holoCaM-CaMKII.loop1.water2.frame70 

   0  1 
C         69.48883       50.18158       71.26314
C         68.44825       49.17048       70.88141
O         68.25796       48.20460       71.60060
H         70.26140       50.23666       70.46712
H         69.01525       51.17941       71.37903
H         69.98117       49.90407       72.21906
N         67.73518       49.33768       69.73718
C         66.70237       48.41492       69.26638
C         67.26278       47.01322       69.08490
O         68.20128       46.82857       68.32365
C         66.08497       48.99661       67.98047
C         65.14973       48.11001       67.20582
O         65.36706       47.95056       66.01517
O         64.06566       47.50555       67.73138
H         67.94709       50.17642       69.17276
H         65.89048       48.36681       70.01206
H         66.90601       49.28594       67.28601
H         65.54019       49.92467       68.25829
N         66.70216       45.97360       69.77460
C         67.15545       44.58832       69.70476
C         66.10662       43.68900       69.05344
O         66.31873       42.48393       69.01175
C         67.42937       44.05667       71.13252
C         68.40363       44.88853       71.98125
C         69.79296       45.12348       71.36787
C         70.53251       43.82058       71.03214
N         71.89849       44.09853       70.59042
H         65.89227       46.16517       70.38311
H         68.08462       44.50679       69.10199
H         67.81481       43.01670       71.06354
H         66.46904       44.01400       71.69479
H         68.52706       44.37235       72.95848
H         67.93989       45.87022       72.19514
H         70.38740       45.69732       72.11219
H         69.70724       45.74555       70.45188
H         69.99137       43.28309       70.22310
H         70.56819       43.16502       71.92976
H         72.36111       43.20021       70.32207
H         71.89134       44.73869       69.76336
H         72.44074       44.53645       71.37060
N         64.95985       44.19558       68.51635
C         63.88763       43.38265       67.95258
C         63.72049       43.62880       66.45954
O         62.88357       42.97176       65.85605
C         62.56222       43.79169       68.62960
C         62.60845       43.74030       70.13066
O         62.61644       42.66744       70.71208
O         62.65219       44.89298       70.83685
H         64.82134       45.21141       68.50625
H         64.09125       42.30086       68.11136
H         61.70351       43.18936       68.25939
H         62.36379       44.84370       68.33854
N         64.41866       44.60525       65.80714
C         64.15681       44.98254       64.43040
C         62.71477       45.41358       64.26749
O         62.03403       44.88713       63.39910
H         65.12501       45.16297       66.30474
H         64.39928       44.14113       63.74541
H         64.81380       45.84061       64.16860
N         62.17415       46.33700       65.11482
C         60.78154       46.77662       65.06885
C         60.64992       48.29380       64.91371
O         59.52769       48.77889       64.87543
C         60.01974       46.24242       66.30566
C         60.44410       46.77660       67.64662
O         59.82950       46.32285       68.75462
O         61.32411       47.61122       67.75268
H         62.77258       46.70967       65.86056
H         60.27393       46.32122       64.19070
H         60.13389       45.13625       66.32741
H         58.93909       46.46921       66.18501
N         61.74127       49.10141       64.76141
C         61.65892       50.52714       64.48400
C         61.34681       51.42052       65.67026
O         61.38941       52.62564       65.47380
H         62.68223       48.68526       64.72652
H         60.95001       50.71167       63.64809
H         62.66448       50.85431       64.13879
N         61.07678       50.94317       66.92148
C         60.95513       51.82031       68.08890
C         62.00688       51.46579       69.13184
O         62.60002       50.39919       69.07792
C         59.53156       51.78052       68.70687
C         58.48664       52.48629       67.83153
O         59.13379       50.46420       68.99987
H         61.00520       49.93145       67.06981
H         61.16573       52.87281       67.80120
H         59.54142       52.35089       69.66219
H         58.86220       50.02555       68.15098
H         57.49783       52.46151       68.33966
H         58.77176       53.55080       67.68853
H         58.39515       51.99851       66.83954
N         62.30032       52.37636       70.10558
C         63.25521       52.16044       71.18787
C         62.49908       52.32813       72.49157
O         61.84922       53.34616       72.68149
C         64.44913       53.16033       71.09868
C         65.23576       52.93939       69.77913
C         65.38655       52.98342       72.31744
C         66.36548       53.95005       69.55590
H         61.81499       53.28580       70.08000
H         63.68865       51.13827       71.14106
H         64.04728       54.19763       71.11184
H         64.54095       53.03672       68.91850
H         65.66537       51.91332       69.76380
H         66.21418       53.71859       72.31041
H         64.84243       53.15897       73.26660
H         65.81515       51.95810       72.33785
H         67.15318       53.86937       70.33160
H         66.85052       53.75162       68.57717
H         65.95957       54.98365       69.54850
N         62.58089       51.37263       73.45548
C         61.86753       51.45499       74.72434
C         62.78213       51.95737       75.82521
O         63.95989       52.18525       75.59341
C         61.32572       50.04882       75.10375
C         60.35987       49.50611       74.05265
O         62.40525       49.15962       75.25284
H         63.20780       50.57266       73.29933
H         61.02204       52.17368       74.64853
H         60.77441       50.12166       76.06757
H         62.05211       48.34069       75.68659
H         60.88801       49.38315       73.08855
H         59.97759       48.51324       74.37297
H         59.49779       50.19235       73.92467
N         62.27923       52.12938       77.07941
C         63.10812       52.39159       78.25163
C         64.05164       51.22274       78.48126
O         65.20663       51.44665       78.81058
C         62.24859       52.60525       79.52570
C         61.43506       53.90885       79.46519
O         61.43017       51.48998       79.79667
H         61.26628       52.00305       77.20887
H         63.70444       53.32057       78.10329
H         62.93834       52.72585       80.39005
H         60.57895       51.58567       79.29531
H         62.11970       54.77624       79.34623
H         60.71867       53.90251       78.61775
H         60.86963       54.04038       80.41203
N         63.61404       49.93905       78.32639
C         64.45582       48.76216       78.54693
C         65.59453       48.63268       77.52916
O         66.40791       47.73286       77.68457
C         63.60332       47.46600       78.50039
C         62.39548       47.44703       79.46243
C         62.79709       47.55341       80.94168
C         61.58722       47.51636       81.89156
N         60.73691       48.70332       81.76041
H         62.63080       49.80499       78.05446
H         64.90880       48.85066       79.55644
H         64.25050       46.59110       78.72903
H         63.21243       47.33290       77.46909
H         61.85143       46.48940       79.31117
H         61.69462       48.25838       79.19612
H         63.35880       48.49037       81.13604
H         63.45744       46.69161       81.18000
H         61.97313       47.47659       82.93388
H         60.98829       46.59616       81.71283
H         59.97607       48.65589       82.47565
H         61.29955       49.56883       81.93009
H         60.28995       48.74906       80.81822
N         65.71021       49.47445       76.46231
C         66.75296       49.39149       75.44488
C         67.64963       50.62264       75.44326
O         68.59457       50.63885       74.66609
C         66.07503       49.22235       74.07486
C         65.41666       47.84123       73.96186
C         64.61554       47.67342       72.70971
O         64.40873       48.70052       71.86461
O         64.11449       46.58930       72.47229
H         65.00975       50.20628       76.33093
H         67.42795       48.52713       75.63042
H         66.81454       49.31802       73.25697
H         65.33079       50.03594       73.94711
H         64.73225       47.65758       74.81576
H         66.22205       47.07444       73.97620
N         67.44961       51.67209       76.29103
C         68.32552       52.82210       76.36787
H         69.18818       52.74822       75.67400
H         67.75089       53.74077       76.12992
H         68.71924       52.90371       77.40345
H         66.65123       51.67333       76.93077
Ca        63.29758       46.79221       69.74011
O         61.18266       46.50099       72.89504
H         61.77442       46.39636       73.68168
H         60.77754       45.60711       72.76709
O         60.15779       48.35688       70.77746
H         59.31293       48.27354       71.28740
H         60.40039       49.31356       70.84988

Ca 1.0



