%chk=holoCaM.loop2.water1.frame252.chk
%nprocshared=20
%mem=10GB
%nosave
#b3lyp/svp scf=(tight,noincore,xqc) Test 
#IOP(5/87=12) Density=Current Pop=(MK,readradii) iop(6/33=2) iop(6/42=6)

holoCaM.loop2.water1.frame252 

   -2  1 
C         68.27086       92.30453       59.54847
C         68.30543       92.61091       58.08373
O         67.30388       92.40086       57.41369
H         67.46202       92.90146       60.02150
H         68.07018       91.22507       59.70036
H         69.23160       92.56789       60.03886
N         69.42001       93.14908       57.51665
C         69.44851       93.56879       56.12665
C         69.30205       92.37010       55.19216
O         70.09667       91.44661       55.30342
C         70.74653       94.35249       55.82313
C         70.59194       95.18822       54.58974
O         71.52956       95.83749       54.16284
O         69.38966       95.27883       53.99986
H         70.24298       93.33241       58.11174
H         68.60200       94.27134       56.00917
H         71.60465       93.65124       55.73115
H         70.96444       95.07182       56.64142
N         68.30696       92.31512       54.25516
C         68.05099       91.14544       53.41642
C         68.30412       91.37639       51.92804
O         68.22925       90.40231       51.19140
C         66.61160       90.67640       53.65002
H         67.68276       93.12185       54.15460
H         68.73109       90.31739       53.71194
H         66.45776       90.45265       54.72740
H         65.89315       91.46932       53.34721
H         66.39590       89.75573       53.06744
N         68.64230       92.59384       51.40776
C         69.04477       92.78469       50.00821
C         70.49303       93.27105       49.91536
O         70.98629       93.41868       48.80590
C         68.03498       93.68951       49.25678
C         67.83535       95.01062       49.92373
O         68.85947       95.86347       50.04729
O         66.77150       95.26551       50.46657
H         68.65758       93.41656       52.02726
H         69.03327       91.81513       49.46489
H         67.05951       93.15648       49.24331
H         68.35174       93.84798       48.20369
N         71.25713       93.47820       51.02993
C         72.66923       93.80851       50.99646
C         72.96498       95.13119       50.33748
O         73.79388       95.16149       49.43872
H         70.85854       93.34435       51.96869
H         73.23255       92.99054       50.49411
H         73.04011       93.87034       52.04376
N         72.36492       96.27670       50.77072
C         72.74917       97.60700       50.30345
C         73.25034       98.47305       51.46837
O         73.51471       99.64698       51.25117
C         71.60520       98.27781       49.49931
C         70.41006       98.75051       50.28229
N         69.39470       99.38438       49.65374
O         70.35973       98.59570       51.48587
H         71.63720       96.20437       51.49641
H         73.58695       97.52671       49.57634
H         71.26773       97.57629       48.70437
H         72.02458       99.17747       48.99984
H         69.42158       99.54332       48.63671
H         68.58417       99.72974       50.18790
N         73.44980       97.94979       52.72013
C         74.00560       98.70273       53.83692
C         72.98657       99.47580       54.66289
O         73.40952      100.12971       55.60600
H         73.33974       96.93895       52.86728
H         74.81054       99.37489       53.46755
H         74.48771       97.98328       54.53361
N         71.64963       99.46346       54.39048
C         70.64851      100.23122       55.13984
C         69.51293       99.34477       55.65426
O         69.50769       98.14671       55.40222
C         70.10224      101.36859       54.23566
C         71.17131      102.45244       54.03348
O         69.69142      100.83554       53.00289
H         71.32089       98.91264       53.59185
H         71.09855      100.69951       56.04313
H         69.23725      101.86450       54.72437
H         69.48021      101.58960       52.39344
H         70.75954      103.27974       53.41716
H         71.46156      102.87866       55.01829
H         72.07107      102.04205       53.53170
N         68.50841       99.89922       56.40063
C         67.36309       99.17414       56.94620
C         66.08514       99.70685       56.30238
O         65.81660      100.89691       56.40416
C         67.30857       99.33817       58.50359
C         68.57005       98.72470       59.16439
C         66.02796       98.70461       59.08547
C         68.60573       98.87718       60.69082
H         68.54801      100.91035       56.60048
H         67.44384       98.08904       56.72761
H         67.27613      100.42476       58.74426
H         69.46959       99.23497       58.75978
H         68.64039       97.64283       58.91670
H         65.13577       99.19402       58.66066
H         65.99387       97.61470       58.88190
H         65.94153       98.87510       60.17573
H         69.56218       98.47433       61.08320
H         68.52229       99.94674       60.97795
H         67.79267       98.30132       61.17898
N         65.21808       98.85646       55.67654
C         63.89315       99.25070       55.20398
C         62.87368       99.06443       56.31719
O         63.22347       98.56582       57.37617
C         63.47853       98.38954       53.99002
C         64.39415       98.55578       52.81809
O         65.06925       97.49624       52.33251
O         64.50015       99.64327       52.27478
H         65.43915       97.85540       55.67347
H         63.89630      100.32626       54.91922
H         62.46218       98.67028       53.64623
H         63.46036       97.31854       54.29369
N         61.57926       99.45764       56.15306
C         60.58360       99.32802       57.20988
C         60.37255       97.87707       57.64753
O         60.41134       97.65158       58.84763
C         59.23869       99.97360       56.82171
C         58.35099      100.09107       58.04226
C         58.72629      100.94052       59.10210
C         57.16029       99.35446       58.14659
C         57.92985      101.04488       60.24394
C         56.36736       99.45897       59.29583
C         56.75204      100.30257       60.34264
H         61.30308       99.89600       55.26064
H         60.97280       99.90532       58.07804
H         58.75670       99.37702       56.02103
H         59.40126      100.99874       56.42371
H         59.63654      101.52490       59.04540
H         56.85339       98.69089       57.34843
H         58.22883      101.70005       61.05263
H         55.45520       98.88318       59.37781
H         56.13880      100.38185       61.23091
N         60.15608       96.83366       56.77919
C         59.99868       95.45242       57.21695
C         61.26658       94.92891       57.87816
O         61.15198       94.26142       58.89733
C         59.60071       94.70711       55.93449
C         60.28319       95.49769       54.84678
C         60.08139       96.93243       55.33049
H         59.15528       95.32575       57.93269
H         59.78419       93.61104       55.93785
H         58.50969       94.87023       55.77677
H         61.36274       95.24609       54.87691
H         59.92625       95.30557       53.81267
H         60.87662       97.53553       54.86853
H         59.07860       97.31931       55.05234
N         62.50802       95.22657       57.39608
C         63.73997       94.74380       58.02334
C         63.89744       95.27957       59.44429
O         64.67876       94.71749       60.19854
C         64.97498       95.16001       57.19581
C         64.93837       94.61275       55.75379
C         66.03980       95.15956       54.89015
O         66.97235       95.99222       55.38741
O         66.07087       94.86956       53.70547
H         62.57606       95.83540       56.57164
H         63.68859       93.63255       58.06362
H         65.90716       94.80973       57.69224
H         64.99235       96.26737       57.17053
H         63.99427       94.90116       55.25500
H         64.99578       93.50309       55.77397
N         63.20877       96.37944       59.86430
C         63.27400       96.92778       61.20168
H         62.24961       96.94745       61.63205
H         63.92706       96.33411       61.87259
H         63.65442       97.96959       61.15372
H         62.61060       96.87793       59.20160
Ca        69.01287       96.43467       52.16826
O         67.36694       99.36539       52.52676
H         67.05751      100.25821       52.22933
H         67.42829       99.44100       53.51144

Ca 1.0



