%chk=holoCaM-CaMKII.loop2.water1.frame143.chk
%nprocshared=20
%mem=10GB
%nosave
#b3lyp/svp scf=(tight,noincore,xqc) Test 
#IOP(5/87=12) Density=Current Pop=(MK,readradii) iop(6/33=2) iop(6/42=6)

holoCaM-CaMKII.loop2.water1.frame143 

   -2  1 
C         15.18939       14.21911       50.26334
C         13.97383       14.08138       49.38757
O         13.43552       12.99283       49.25780
H         16.04466       14.59456       49.66226
H         14.98068       14.95013       51.07504
H         15.47029       13.24985       50.72549
N         13.47763       15.18416       48.76943
C         12.27308       15.20877       47.94297
C         12.41217       14.39143       46.66332
O         13.38495       14.56776       45.94371
C         11.95148       16.67051       47.58915
C         10.72428       16.77752       46.74027
O         10.78837       17.31732       45.64832
O          9.55867       16.25734       47.16750
H         13.97183       16.07530       48.93881
H         11.41547       14.82996       48.54002
H         12.81195       17.12993       47.05427
H         11.77810       17.23622       48.53021
N         11.41042       13.53935       46.28497
C         11.41638       12.76060       45.04859
C         10.24205       13.08324       44.11387
O         10.18593       12.47571       43.05313
C         11.34946       11.27238       45.42032
H         10.59270       13.44246       46.90220
H         12.35473       12.94072       44.48233
H         10.40434       11.05366       45.96679
H         11.38360       10.63372       44.51177
H         12.20451       10.99815       46.07286
N          9.23737       13.95087       44.44782
C          7.97908       14.02750       43.68755
C          7.37244       15.42240       43.57055
O          6.35765       15.55186       42.89887
C          6.98286       13.08373       44.36709
C          6.88395       13.38606       45.82509
O          6.21296       14.31561       46.23879
O          7.63680       12.65527       46.66232
H          9.26627       14.38680       45.37706
H          8.13072       13.65941       42.64996
H          7.40647       12.05923       44.28286
H          5.97790       13.05714       43.89288
N          7.90683       16.50418       44.19350
C          7.35941       17.84380       44.09645
C          5.95363       17.95232       44.64046
O          5.08463       18.42254       43.91984
H          8.75135       16.39294       44.75553
H          7.38824       18.18135       43.03731
H          8.00138       18.53153       44.68903
N          5.66707       17.58029       45.92119
C          4.36922       17.82020       46.55100
C          4.50537       18.74559       47.76471
O          3.51825       18.96033       48.45488
C          3.64361       16.49650       46.88214
C          4.23699       15.62954       47.95660
N          3.56578       14.52482       48.34743
O          5.29706       15.91255       48.48994
H          6.41557       17.15228       46.48767
H          3.68492       18.33572       45.84241
H          3.54563       15.89205       45.95373
H          2.61726       16.75753       47.22145
H          2.67262       14.26131       47.90681
H          3.92360       13.94613       49.11131
N          5.68499       19.37884       48.04944
C          5.86618       20.32380       49.14139
C          5.91743       19.70978       50.52992
O          6.09376       20.47107       51.47029
H          6.48625       19.26798       47.41482
H          5.06856       21.09749       49.09184
H          6.84003       20.83897       48.99478
N          5.76421       18.37224       50.75460
C          5.75046       17.77315       52.08687
C          6.68399       16.57825       52.18563
O          6.63468       15.70581       51.32832
C          4.32343       17.29815       52.45346
C          3.31054       18.44885       52.44689
O          3.88534       16.24318       51.63166
H          5.58773       17.75523       49.95878
H          6.02682       18.52141       52.86319
H          4.36341       16.91006       53.49632
H          3.73479       16.60492       50.72166
H          3.20009       18.86918       51.42502
H          2.32211       18.07635       52.78667
H          3.64273       19.25674       53.13324
N          7.45003       16.40182       53.30047
C          8.15534       15.15331       53.58677
C          7.14104       14.01417       53.62577
O          6.21317       14.07121       54.42264
C          8.89997       15.23942       54.96695
C         10.03565       16.29799       54.98987
C          9.44761       13.87578       55.43584
C         11.22817       15.99336       54.07426
H          7.44707       17.14438       54.01589
H          8.90200       14.94879       52.79070
H          8.15332       15.54824       55.73315
H         10.42345       16.37028       56.03044
H          9.62987       17.29504       54.72373
H          8.62215       13.15366       55.59174
H         10.15224       13.45010       54.69611
H          9.96263       13.97804       56.41468
H         11.71864       15.03779       54.35359
H         10.92207       15.95306       53.01035
H         11.98597       16.79688       54.18574
N          7.31059       12.91126       52.84155
C          6.52177       11.69347       53.00271
C          7.29145       10.71461       53.85070
O          8.39487       11.02303       54.26823
C          6.20419       11.05174       51.64410
C          5.09199       11.74479       50.93652
O          3.97745       11.78581       51.43030
O          5.26745       12.17796       49.69168
H          8.14503       12.86691       52.23505
H          5.57801       11.88575       53.55952
H          5.83303       10.01598       51.77398
H          7.12825       10.98585       51.02480
N          6.74334        9.52241       54.19946
C          7.40913        8.56502       55.06655
C          8.72543        8.05151       54.47016
O          9.70905        8.10623       55.19197
C          6.42849        7.45070       55.48466
C          7.03181        6.47138       56.46031
C          7.03558        5.09977       56.16017
C          7.57969        6.90842       57.68180
C          7.57707        4.18204       57.06338
C          8.12976        5.98771       58.57669
C          8.12649        4.62540       58.26901
H          5.78605        9.30802       53.87449
H          7.65951        9.10035       56.00957
H          6.03286        6.91697       54.60117
H          5.55752        7.93292       55.98129
H          6.61149        4.73902       55.23122
H          7.58698        7.95772       57.94641
H          7.56879        3.12635       56.82775
H          8.55544        6.33133       59.51064
H          8.54716        3.91320       58.96601
N          8.86775        7.59028       53.17912
C         10.14413        7.14469       52.60263
C         11.27738        8.17053       52.60058
O         12.36533        7.83819       52.14749
C          9.79175        6.84702       51.13782
C          8.34945        6.42163       51.23420
C          7.79498        7.44376       52.22046
H         10.45109        6.22780       53.15188
H          9.78519        7.80130       50.55782
H         10.47876        6.13647       50.63021
H          7.80665        6.37396       50.26640
H          8.32742        5.41670       51.71410
H          7.61939        8.42656       51.73331
H          6.85853        7.03482       52.63538
N         11.08701        9.43974       53.04686
C         12.06541       10.51007       52.99849
C         12.47709       10.87319       54.41423
O         13.66678       10.90194       54.69339
C         11.44479       11.70454       52.24299
C         11.02316       11.28333       50.82326
C         10.39480       12.38926       50.03359
O         10.02864       12.16100       48.89431
O         10.21852       13.61898       50.55581
H         10.16763        9.70787       53.39602
H         12.98073       10.19968       52.44536
H         12.18438       12.53301       52.18233
H         10.54777       12.07148       52.78717
H         10.27668       10.46127       50.87813
H         11.91449       10.91575       50.27147
N         11.54546       11.09967       55.38200
C         11.89368       11.37282       56.75713
H         12.45372       12.32720       56.82522
H         10.96776       11.45361       57.36801
H         12.50642       10.54043       57.16443
H         10.55020       11.03663       55.15663
Ca         7.24252       12.58623       48.81929
O          8.14713       17.52945       49.17930
H          9.03855       17.56635       49.60683
H          8.24092       18.08593       48.36652

Ca 1.0



