%chk=holoCaM.loop3.water2.frame446.chk
%nprocshared=20
%mem=10GB
%nosave
#b3lyp/svp scf=(tight,noincore,xqc) Test 
#IOP(5/87=12) Density=Current Pop=(MK,readradii) iop(6/33=2) iop(6/42=6)

holoCaM.loop3.water2.frame446 

   0  1 
C         22.12780       65.45520       45.38229
C         22.96509       64.41994       46.06303
O         23.05316       63.30541       45.56492
H         21.32112       65.78916       46.06557
H         22.76595       66.32108       45.10728
H         21.67260       65.04105       44.45677
N         23.64344       64.72846       47.20497
C         24.51851       63.76497       47.85210
C         23.68190       62.60936       48.39523
O         22.83723       62.82500       49.25296
C         25.39103       64.44338       48.93480
C         26.60406       63.60102       49.21899
O         26.44885       62.36133       49.69797
O         27.71625       64.02129       48.95715
H         23.57593       65.68765       47.57889
H         25.22262       63.41161       47.06593
H         24.80212       64.65789       49.85284
H         25.76490       65.41070       48.53292
N         23.83294       61.36243       47.87498
C         23.00425       60.20486       48.21804
C         23.10073       59.85289       49.69619
O         22.06624       59.62845       50.30866
C         23.39932       59.02860       47.29222
C         22.48548       57.79437       47.31357
C         22.88526       56.86404       46.14848
C         22.01317       55.60707       46.05641
N         22.36351       54.82364       44.86851
H         24.54867       61.24832       47.14300
H         21.94471       60.44494       47.97279
H         24.42693       58.69165       47.51364
H         23.36261       59.43247       46.25465
H         21.43036       58.10958       47.16281
H         22.57211       57.27052       48.29022
H         23.95067       56.56045       46.25126
H         22.77333       57.42920       45.19586
H         20.94214       55.89946       45.98982
H         22.15687       54.98749       46.96867
H         23.36885       54.53686       44.90226
H         21.76650       53.96637       44.82935
H         22.19195       55.38788       44.00363
N         24.30407       59.82698       50.34204
C         24.46701       59.45269       51.74889
C         24.88813       60.63913       52.63874
O         25.10433       60.42935       53.82415
C         25.43630       58.24156       51.82123
C         26.86504       58.62909       51.56924
O         27.45545       59.26732       52.41908
O         27.47390       58.43980       50.38672
H         25.14435       60.07903       49.80779
H         23.49586       59.09674       52.15609
H         25.09996       57.48597       51.07888
H         25.39499       57.76681       52.82544
N         24.95754       61.91777       52.15675
C         25.23497       63.09519       52.97448
C         26.64509       63.24140       53.52636
O         26.84855       64.19620       54.26454
H         24.68411       62.09505       51.18473
H         24.51627       63.10855       53.82175
H         25.04586       64.00635       52.36488
N         27.66855       62.38090       53.24561
C         28.98863       62.53036       53.86808
C         29.73218       63.78285       53.40770
O         30.75772       64.09515       53.99691
C         29.86987       61.27004       53.68358
C         30.41144       61.07277       52.28572
N         31.74691       60.98327       52.07447
O         29.64632       60.97440       51.34123
H         27.48673       61.58736       52.62704
H         28.80718       62.60797       54.96419
H         29.28366       60.37548       53.98266
H         30.72883       61.33968       54.38639
H         32.41559       61.04915       52.85581
H         32.11932       60.83115       51.12647
N         29.29786       64.52407       52.34462
C         29.96368       65.72402       51.86370
C         30.54010       65.54801       50.47119
O         31.05114       66.52355       49.93913
H         28.46129       64.22910       51.82312
H         30.80024       66.02546       52.53185
H         29.22211       66.55056       51.86125
N         30.57206       64.33085       49.84941
C         31.24963       64.08878       48.58024
C         30.35891       63.36670       47.60366
O         29.68144       62.43001       48.00793
C         32.46568       63.16733       48.78992
C         33.54829       63.79572       49.62496
C         33.36828       64.03472       50.99828
C         34.76870       64.14024       49.02290
C         34.38801       64.62136       51.75021
C         35.78581       64.72636       49.77530
C         35.59834       64.97096       51.14253
O         36.57364       65.53722       51.87942
H         30.18055       63.50756       50.32924
H         31.62548       65.02982       48.11960
H         32.87974       62.94383       47.77994
H         32.16218       62.19728       49.23598
H         32.44682       63.76336       51.49457
H         34.93211       63.96226       47.96677
H         34.23620       64.80188       52.80668
H         36.71755       64.98956       49.29198
H         37.42366       65.79153       51.49300
N         30.46842       63.61707       46.26575
C         29.84083       62.76219       45.26690
C         30.89744       62.00731       44.47220
O         32.03554       62.44758       44.37675
C         28.82664       63.52222       44.36553
C         29.49891       64.62357       43.50640
C         27.69073       64.08140       45.24141
C         28.53487       65.29268       42.52125
H         31.09252       64.37330       45.94511
H         29.25599       61.98151       45.78296
H         28.37662       62.77908       43.67098
H         30.30922       64.16244       42.90209
H         29.94789       65.40569       44.15467
H         26.88181       64.52490       44.62781
H         27.23336       63.25776       45.82832
H         28.07402       64.85093       45.94487
H         27.73378       65.84777       43.04988
H         29.08973       66.02476       41.89765
H         28.07673       64.53319       41.85194
N         30.55724       60.83577       43.87398
C         31.42528       60.02640       43.03167
C         30.86810       60.06358       41.62302
O         29.89162       60.75901       41.40096
C         31.47482       58.58303       43.58049
O         30.19151       58.01482       43.58767
H         29.59348       60.50516       43.98434
H         32.46017       60.43161       43.00870
H         31.87919       58.59817       44.61700
H         32.14993       57.96467       42.94779
H         30.30371       57.06984       43.87090
N         31.42275       59.35615       40.60664
C         30.83922       59.34639       39.26785
C         29.43276       58.76523       39.29414
O         28.52321       59.38626       38.76350
C         31.71261       58.53921       38.30994
H         32.27098       58.79895       40.79263
H         30.80377       60.38650       38.86946
H         31.27283       58.56868       37.28957
H         32.72663       58.99070       38.26428
H         31.79776       57.48346       38.64107
N         29.18645       57.58428       39.93198
C         27.87308       56.94383       39.99655
C         26.80342       57.89178       40.51146
O         25.79694       58.06576       39.83839
C         27.94536       55.69562       40.88752
H         29.97726       57.12600       40.41125
H         27.58332       56.61108       38.97511
H         26.96068       55.18229       40.91593
H         28.69710       54.98404       40.48311
H         28.23914       55.96532       41.92517
N         26.97315       58.56755       41.67994
C         26.00363       59.53084       42.20552
C         25.73705       60.63242       41.18973
O         24.58880       60.82932       40.81730
C         26.52204       60.12362       43.53300
C         26.53149       59.05727       44.64469
C         27.18167       59.55184       45.89971
O         26.47004       59.69651       47.02302
O         28.37748       59.76697       45.92773
H         27.85263       58.41043       42.19561
H         25.03721       59.01914       42.41361
H         25.86897       60.96003       43.86766
H         27.53162       60.53645       43.35713
H         27.07628       58.14195       44.33474
H         25.47678       58.77760       44.85571
N         26.75438       61.36801       40.67308
C         26.55714       62.39603       39.67601
H         25.92412       63.20849       40.08821
H         27.53935       62.82361       39.37805
H         26.07621       61.96289       38.77302
H         27.70701       61.17534       40.98067
Ca        27.61905       60.45867       49.40524
O         29.49060       57.81637       48.52694
H         29.20424       57.35168       47.70120
H         30.03278       57.14914       49.01756
O         31.21160       60.06852       47.64638
H         30.78753       59.58144       46.89714
H         32.18242       59.94330       47.50417

Ca 1.0



