%chk=holoCaM-CaMKII.loop3.water2.frame109.chk
%nprocshared=20
%mem=10GB
%nosave
#b3lyp/svp scf=(tight,noincore,xqc) Test 
#IOP(5/87=12) Density=Current Pop=(MK,readradii) iop(6/33=2) iop(6/42=6)

holoCaM-CaMKII.loop3.water2.frame109 

   0  1 
C         34.72106       27.52502       71.66153
C         35.74955       27.20589       72.70255
O         36.69625       26.49532       72.39441
H         33.92681       28.18636       72.06672
H         35.21177       28.04360       70.81080
H         34.25572       26.58538       71.29951
N         35.64589       27.71971       73.96042
C         36.65903       27.48612       74.97780
C         36.71499       26.00331       75.33305
O         35.73048       25.45585       75.80924
C         36.41030       28.40503       76.18975
C         37.59264       28.44537       77.10023
O         37.75687       29.39540       77.83878
O         38.42397       27.39871       77.16186
H         34.84962       28.33887       74.17882
H         37.63252       27.80802       74.54142
H         35.47629       28.17141       76.74376
H         36.30702       29.43606       75.78766
N         37.83555       25.28424       75.03680
C         37.89221       23.82340       75.05772
C         38.20733       23.23694       76.43139
O         38.06140       22.03223       76.58301
C         38.92663       23.39295       73.99492
C         39.02344       21.89607       73.68220
C         39.99426       21.69932       72.50649
C         40.14865       20.22659       72.11950
N         41.04849       20.09021       70.97313
H         38.60584       25.79151       74.57893
H         36.89964       23.44332       74.72618
H         39.92706       23.76135       74.30625
H         38.63952       23.90470       73.04805
H         38.02033       21.51059       73.39739
H         39.39307       21.33874       74.56826
H         40.99295       22.10765       72.77761
H         39.61141       22.26004       71.62442
H         39.15408       19.80368       71.85569
H         40.55921       19.65769       72.98278
H         40.65570       20.59739       70.14635
H         41.99163       20.47900       71.20506
H         41.14862       19.07835       70.73125
N         38.66324       24.00228       77.46730
C         38.98263       23.46255       78.78973
C         38.07963       24.10323       79.85416
O         37.49346       23.36492       80.63322
C         40.51474       23.52715       79.05482
C         41.04287       24.89011       79.35776
O         40.72352       25.41864       80.40496
O         41.84718       25.56715       78.51802
H         38.82824       25.00035       77.30353
H         38.77404       22.36952       78.80990
H         41.03370       23.10597       78.16639
H         40.77246       22.88604       79.92654
N         37.83359       25.45336       79.87446
C         36.87231       26.10023       80.76914
C         37.42948       27.29175       81.54024
O         36.68524       27.87040       82.31906
H         38.28139       26.04628       79.16858
H         36.46241       25.37169       81.50142
H         36.02510       26.47443       80.15577
N         38.71933       27.70720       81.40127
C         39.33281       28.76730       82.20051
C         38.87375       30.18009       81.84643
O         39.27807       31.09993       82.54385
C         40.87548       28.62756       82.14497
C         41.49930       28.72993       80.77205
N         42.81420       28.46027       80.61525
O         40.82820       29.02678       79.79767
H         39.31993       27.19281       80.75860
H         39.05784       28.58854       83.26339
H         41.11630       27.61420       82.53447
H         41.35575       29.37138       82.81570
H         43.39635       28.19356       81.42236
H         43.24900       28.50393       79.68263
N         38.05204       30.44202       80.79056
C         37.54866       31.77270       80.47744
C         38.12733       32.36216       79.20715
O         37.66292       33.42893       78.82780
H         37.74445       29.67013       80.18958
H         37.76028       32.49634       81.29380
H         36.44265       31.70506       80.38335
N         39.17075       31.79184       78.52955
C         39.77445       32.41574       77.35247
C         40.07601       31.41538       76.24515
O         39.97589       30.21523       76.45445
C         40.96275       33.29251       77.78363
C         42.03197       32.55133       78.54624
C         42.06355       32.61307       79.95099
C         43.01951       31.82217       77.86972
C         43.06480       31.95289       80.66585
C         44.03131       31.17378       78.58640
C         44.05790       31.23641       79.98464
O         45.03681       30.60269       80.66186
H         39.61426       30.94841       78.91209
H         39.03134       33.11123       76.90277
H         40.53428       34.06781       78.45707
H         41.40933       33.84783       76.93121
H         41.30793       33.16675       80.49489
H         43.01607       31.77674       76.78950
H         43.06966       32.00332       81.74761
H         44.79802       30.62524       78.05523
H         45.08167       30.61197       81.62893
N         40.33223       31.87597       74.98708
C         40.36292       31.03017       73.79508
C         41.64518       31.27389       73.01280
O         41.98686       32.42544       72.77817
C         39.11781       31.36377       72.91145
C         37.80891       31.19643       73.73017
C         39.08340       30.46340       71.65765
C         36.54758       31.64502       72.99081
H         40.37559       32.89704       74.84308
H         40.28502       29.95231       74.06263
H         39.19184       32.42633       72.58924
H         37.85797       31.82174       74.64560
H         37.69853       30.13821       74.03879
H         38.23703       30.72118       70.99222
H         39.99704       30.60035       71.05105
H         38.99990       29.39271       71.94627
H         35.67232       31.54209       73.66665
H         36.64062       32.71159       72.69414
H         36.35000       31.02507       72.09469
N         42.34493       30.22731       72.48608
C         43.52536       30.38772       71.63757
C         43.19013       30.04395       70.19451
O         42.05900       29.68813       69.91115
C         44.66532       29.50069       72.16697
O         44.28863       28.15078       72.11769
H         41.98205       29.27301       72.63159
H         43.87086       31.44423       71.64398
H         44.89467       29.78826       73.21502
H         45.57817       29.65493       71.55080
H         45.08681       27.62649       72.38644
N         44.12955       30.14699       69.21408
C         43.86240       29.81283       67.81692
C         43.45827       28.35654       67.67628
O         42.42490       28.07685       67.08524
C         45.10401       30.08374       66.95957
H         45.07264       30.47636       69.47150
H         43.04805       30.46489       67.42685
H         45.96446       29.46690       67.29548
H         44.88941       29.85083       65.89416
H         45.38473       31.15624       67.03054
N         44.23061       27.37788       68.22536
C         43.93792       25.95103       68.12754
C         42.54722       25.61834       68.63190
O         41.79729       24.97546       67.91025
C         44.97442       25.15286       68.92855
H         45.06929       27.66960       68.75152
H         44.01741       25.63413       67.06358
H         44.77581       24.06366       68.83752
H         45.99449       25.35665       68.53901
H         44.94349       25.43396       70.00380
N         42.13295       26.03658       69.85950
C         40.81626       25.72394       70.41217
C         39.71693       26.20197       69.47983
O         38.90970       25.38992       69.04875
C         40.64247       26.35597       71.81083
C         41.64060       25.78081       72.83548
C         41.48558       26.37063       74.21118
O         42.27231       25.92505       75.20833
O         40.67096       27.25155       74.43864
H         42.78518       26.61398       70.40920
H         40.72080       24.61967       70.52444
H         39.61298       26.14116       72.17365
H         40.76435       27.45742       71.74029
H         42.68541       25.96262       72.51637
H         41.49222       24.68389       72.89969
N         39.64419       27.50422       69.10027
C         38.64224       27.99328       68.18066
H         37.62914       27.84944       68.61028
H         38.80273       29.07650       67.99178
H         38.72063       27.45254       67.21303
H         40.33658       28.16803       69.45843
Ca        40.60777       27.19951       77.62669
O         44.13559       27.32474       77.31590
H         44.59322       26.89229       78.07943
H         44.38132       28.28039       77.39077
O         42.92453       29.30647       75.35913
H         43.31598       28.55141       74.85323
H         43.61142       30.01644       75.30432

Ca 1.0



