%chk=holoCaM.loop4.water3.frame100.chk
%nprocshared=20
%mem=10GB
%nosave
#b3lyp/svp scf=(tight,noincore,xqc) Test 
#IOP(5/87=12) Density=Current Pop=(MK,readradii) iop(6/33=2) iop(6/42=6)

holoCaM.loop4.water3.frame100 

   -3  1 
C         82.85060        7.64267       44.67793
C         82.11958        6.65474       43.81386
O         82.76768        5.79722       43.23557
H         83.61623        8.17288       44.07548
H         82.15831        8.39168       45.11619
H         83.35491        7.10581       45.51085
N         80.75883        6.68628       43.72207
C         79.97131        5.68062       43.01408
C         78.76675        6.32674       42.34048
O         78.06006        7.06571       43.01359
C         79.46558        4.67085       44.05737
C         78.78038        3.47948       43.46804
O         78.64476        3.32842       42.14734
O         78.25230        2.66685       44.20706
H         80.25484        7.37357       44.30321
H         80.60137        5.12809       42.28081
H         78.75288        5.18407       44.73889
H         80.31741        4.28701       44.65337
N         78.44763        6.07421       41.03542
C         77.27764        6.66985       40.38037
C         76.32581        5.63080       39.74197
O         75.27916        6.03479       39.25518
C         77.79621        7.74676       39.37419
C         76.73031        8.74721       38.87001
C         78.50255        7.10639       38.16848
C         76.09012        9.57018       39.99158
H         79.07524        5.46935       40.49127
H         76.68366        7.19269       41.15227
H         78.55238        8.36010       39.91679
H         75.94326        8.23626       38.28062
H         77.23959        9.47229       38.19633
H         79.34212        6.47937       38.49941
H         77.79924        6.48137       37.57870
H         78.92972        7.88762       37.50596
H         76.87219       10.09807       40.57971
H         75.41091       10.32772       39.54950
H         75.48409        8.93849       40.67014
N         76.63586        4.29708       39.66785
C         75.82418        3.29078       38.96588
C         75.56835        2.00025       39.76034
O         74.85278        1.14965       39.24743
C         76.47494        2.92840       37.60328
C         77.89358        2.40509       37.63802
O         78.63082        2.42824       38.75488
O         78.41420        2.02162       36.60593
H         77.53104        3.99761       40.05086
H         74.82248        3.71669       38.72839
H         76.47627        3.82888       36.95352
H         75.83792        2.16338       37.10680
N         76.09394        1.76574       40.99496
C         75.83622        0.55102       41.75746
C         76.43018       -0.73604       41.19409
O         76.12854       -1.77515       41.76489
H         76.63908        2.49558       41.45232
H         74.73658        0.43211       41.85956
H         76.25532        0.66939       42.78137
N         77.28224       -0.78127       40.12305
C         77.83000       -2.04656       39.60843
C         78.79122       -2.77153       40.56723
O         79.26828       -3.83839       40.20350
C         78.50709       -1.86212       38.22665
C         79.71418       -0.96833       38.18800
O         80.09997       -0.25870       39.26278
O         80.34602       -0.87296       37.14855
H         77.51999        0.09504       39.63866
H         76.97316       -2.73021       39.41839
H         77.76595       -1.46475       37.50134
H         78.81992       -2.86702       37.86502
N         79.10875       -2.28889       41.80186
C         79.99757       -2.97096       42.73002
C         81.47094       -2.85341       42.39202
O         82.26474       -3.35932       43.17262
H         78.66282       -1.43491       42.14151
H         79.69118       -4.03335       42.83863
H         79.88962       -2.48851       43.72671
N         81.92614       -2.16471       41.30460
C         83.34209       -1.90688       41.06144
C         83.60801       -0.41676       41.07100
O         82.66086        0.35817       41.02591
C         83.79115       -2.49605       39.70221
C         83.60235       -4.01695       39.65486
C         84.34659       -4.64261       38.50012
N         83.94218       -4.48324       37.21873
O         85.33548       -5.32103       38.73545
H         81.25440       -1.75975       40.64850
H         83.96004       -2.35300       41.86938
H         84.87575       -2.27784       39.58645
H         83.25321       -2.01536       38.85258
H         82.52372       -4.28882       39.61951
H         84.03171       -4.42957       40.59132
H         83.09465       -3.94604       36.98895
H         84.47050       -4.93012       36.45273
N         84.89201        0.05407       41.06153
C         85.19487        1.45726       40.83021
C         85.74378        1.55253       39.42652
O         86.78846        0.99121       39.12603
C         86.10077        2.11604       41.91370
C         87.52660        1.54644       41.98233
C         86.17017        3.63847       41.68083
H         85.67180       -0.61924       41.09882
H         84.24986        2.03734       40.87151
H         85.61923        1.95904       42.90396
H         88.08211        1.72341       41.03866
H         88.09609        2.05393       42.79049
H         87.50714        0.46083       42.20254
H         85.14898        4.07477       41.70339
H         86.76434        4.13649       42.47544
H         86.63407        3.87360       40.69973
N         85.02637        2.21707       38.48979
C         85.44113        2.37002       37.10232
C         86.71852        3.19019       37.05201
O         87.07360        3.79188       38.05762
C         84.26154        3.07954       36.39034
C         84.23422        3.27863       34.90589
N         83.14596        3.87176       34.36340
O         85.14038        2.89978       34.18507
H         84.12837        2.62533       38.78409
H         85.60693        1.35750       36.67295
H         84.11217        4.07115       36.87253
H         83.37170        2.45943       36.58851
H         82.36588        4.18561       34.96253
H         83.07375        4.01037       33.34839
N         87.48651        3.25547       35.93051
C         88.60550        4.18440       35.84359
C         88.06582        5.61836       35.82843
O         88.75695        6.52902       36.26030
C         89.51055        3.86770       34.63239
C         88.92251        4.27209       33.30452
C         89.08059        5.59657       32.86507
C         88.23981        3.35405       32.49074
C         88.56191        6.00198       31.63676
C         87.70973        3.76553       31.26200
C         87.86910        5.08866       30.83125
O         87.35194        5.47343       29.64773
H         87.26916        2.64702       35.13180
H         89.24024        4.01938       36.74442
H         89.74849        2.78014       34.64324
H         90.48819        4.38599       34.74329
H         89.61305        6.31548       33.47567
H         88.10961        2.32687       32.80794
H         88.69495        7.02765       31.31758
H         87.17458        3.05608       30.64385
H         87.43752        6.38171       29.32352
N         86.82492        5.87386       35.30184
C         86.17806        7.18562       35.27026
C         85.64539        7.60789       36.64434
O         85.20395        8.74054       36.77608
C         85.00949        7.17373       34.25337
C         85.50929        6.90541       32.82368
C         84.38777        6.90270       31.82627
O         84.36745        7.72333       30.92357
O         83.41455        5.97746       31.90016
H         86.31555        5.09093       34.87450
H         86.92274        7.93659       34.92441
H         84.50249        8.16278       34.25834
H         84.26809        6.39962       34.55110
H         86.01451        5.92104       32.76693
H         86.24062        7.69734       32.55035
N         85.66477        6.75572       37.70821
C         85.27077        7.09187       39.07384
C         86.47705        7.05783       40.00433
O         86.30499        7.37625       41.17346
C         84.27460        6.03615       39.59879
C         82.88724        6.08955       38.95854
C         82.05953        4.90034       39.37162
O         82.56377        3.94400       40.17007
O         80.92675        4.77421       38.94832
H         86.01037        5.80748       37.55946
H         84.83658        8.11461       39.13088
H         84.12440        6.15101       40.69583
H         84.73388        5.03829       39.41846
H         82.96841        6.08289       37.85350
H         82.37964        7.02558       39.28254
N         87.71280        6.65815       39.58378
C         88.85495        6.54132       40.46289
H         89.67342        7.18969       40.08939
H         88.61793        6.82713       41.50826
H         89.19899        5.48524       40.46107
H         87.87304        6.38849       38.60773
Ca        79.93316        2.42679       40.56017
O         81.88778        2.71742       42.71715
H         82.39270        2.13393       43.33360
H         82.50157        3.47011       42.54640
O         79.92798        0.59351       42.61529
H         78.94649        0.71772       42.66255
H         80.20688        0.43024       43.54895
O         81.21280        2.07166       37.70887
H         81.68052        1.22274       37.51216
H         81.00949        2.45645       36.81938

Ca 1.0



