%chk=holoCaM-CaMKII.loop3.water2.frame221.chk
%nprocshared=20
%mem=10GB
%nosave
#b3lyp/svp scf=(tight,noincore,xqc) Test 
#IOP(5/87=12) Density=Current Pop=(MK,readradii) iop(6/33=2) iop(6/42=6)

holoCaM-CaMKII.loop3.water2.frame221 

   0  1 
C         15.25303       51.22060       40.61861
C         15.44342       51.03042       39.14259
O         14.52766       51.32450       38.39582
H         14.38346       50.61723       40.95454
H         16.14712       50.89413       41.19063
H         15.06250       52.29170       40.83757
N         16.62208       50.55766       38.65316
C         16.89585       50.30246       37.23834
C         16.07042       49.11526       36.74276
O         16.56886       47.99828       36.75950
C         18.43289       50.11644       37.07656
C         18.96192       49.59196       35.76308
O         19.77964       48.68723       35.79297
O         18.59252       50.08355       34.56409
H         17.37701       50.38655       39.33582
H         16.62942       51.20387       36.65534
H         18.80834       49.42335       37.86229
H         18.90214       51.10492       37.26914
N         14.78011       49.28361       36.30850
C         13.91832       48.16367       35.93223
C         14.08646       47.71150       34.48749
O         13.51473       46.67847       34.16505
C         12.42925       48.45515       36.22509
C         12.13655       48.57002       37.73059
C         10.61998       48.63195       37.98212
C         10.24357       48.55804       39.47157
N         10.70041       49.72397       40.22671
H         14.37059       50.22736       36.30802
H         14.19521       47.28547       36.55791
H         11.83707       47.59049       35.85192
H         12.08921       49.36474       35.68167
H         12.64752       49.45945       38.15166
H         12.52856       47.65936       38.23454
H         10.15178       47.74769       37.49537
H         10.18931       49.54762       37.52225
H         10.66112       47.62876       39.92052
H          9.13465       48.49848       39.54413
H         10.30183       50.59707       39.81163
H         10.36399       49.63668       41.21315
H         11.74344       49.77345       40.23807
N         14.87083       48.36403       33.57800
C         15.17192       47.79266       32.26304
C         16.61926       47.31301       32.20655
O         17.02308       46.78526       31.17959
C         14.76191       48.72605       31.09901
C         15.54196       49.99885       30.93309
O         16.56289       50.30855       31.74607
O         15.26034       50.75341       30.01599
H         15.34222       49.23567       33.85036
H         14.56640       46.87468       32.10121
H         13.68574       48.98004       31.21612
H         14.87137       48.15764       30.14882
N         17.42750       47.36727       33.30991
C         18.73485       46.74321       33.38013
C         19.82330       47.41512       32.57465
O         20.92919       46.89371       32.59929
H         17.07511       47.76129       34.19113
H         18.63758       45.68070       33.07112
H         19.06807       46.73801       34.43844
N         19.62494       48.55009       31.84043
C         20.69323       49.12653       31.02531
C         21.87558       49.66152       31.83745
O         22.87949       49.99745       31.22305
C         20.15292       50.19902       30.04772
C         19.56576       51.44426       30.66890
N         19.13284       52.44508       29.86859
O         19.47552       51.56182       31.87950
H         18.69060       48.97531       31.80859
H         21.07962       48.30347       30.38361
H         19.36876       49.73549       29.41030
H         20.98799       50.51138       29.38438
H         19.20201       52.36490       28.84373
H         18.73619       53.30617       30.26949
N         21.84052       49.78155       33.19823
C         22.96370       50.24831       33.99940
C         22.69753       51.57943       34.67375
O         23.57725       52.04720       35.37991
H         20.98102       49.54134       33.70478
H         23.87477       50.38262       33.37609
H         23.19447       49.48003       34.76748
N         21.54904       52.28277       34.44581
C         21.33085       53.64399       34.92117
C         19.99624       53.77252       35.63469
O         19.07195       53.03684       35.32768
C         21.34007       54.57390       33.68975
C         22.65113       54.46795       32.94286
C         22.69446       53.90020       31.65681
C         23.84441       54.91526       33.53394
C         23.91175       53.77398       30.98062
C         25.05943       54.79415       32.85296
C         25.09725       54.21930       31.57436
O         26.26333       54.08852       30.90996
H         20.83523       51.89119       33.82533
H         22.14015       53.96330       35.61275
H         21.16412       55.63233       33.98049
H         20.50755       54.26393       33.02146
H         21.79047       53.54064       31.18155
H         23.83392       55.35740       34.52206
H         23.93382       53.32550       29.99512
H         25.97064       55.14369       33.32174
H         27.10590       54.38068       31.28632
N         19.81058       54.77796       36.53795
C         18.53058       55.07999       37.17368
C         18.10454       56.45873       36.69052
O         18.87035       57.40290       36.81213
C         18.64286       55.01222       38.72546
C         19.05907       53.58399       39.16899
C         17.29471       55.40791       39.37156
C         19.31840       53.45057       40.67222
H         20.60868       55.39317       36.75577
H         17.75407       54.34126       36.87487
H         19.42172       55.73412       39.05652
H         20.00288       53.30065       38.65669
H         18.27292       52.85615       38.87402
H         16.99475       56.43261       39.07012
H         16.49139       54.70182       39.06665
H         17.35986       55.42146       40.47695
H         18.40426       53.64217       41.26869
H         19.64786       52.41426       40.89802
H         20.11941       54.15273       40.98636
N         16.87483       56.63147       36.12996
C         16.39215       57.88466       35.56358
C         15.24205       58.42802       36.39221
O         14.88659       57.83277       37.39333
C         15.95870       57.63272       34.10844
O         17.06214       57.21382       33.35624
H         16.23011       55.83588       36.11284
H         17.19029       58.65788       35.56786
H         15.55672       58.56721       33.66176
H         15.16811       56.84744       34.08488
H         16.74695       57.14726       32.41705
N         14.64151       59.60064       36.04405
C         13.57102       60.22405       36.81778
C         12.32333       59.36120       36.87886
O         11.85052       59.08343       37.97268
C         13.21482       61.58321       36.20661
H         14.98958       60.09292       35.20847
H         13.93696       60.41703       37.85115
H         14.11383       62.23571       36.19635
H         12.84895       61.46751       35.16403
H         12.42831       62.08000       36.81340
N         11.73377       58.90744       35.73692
C         10.50603       58.11333       35.71195
C         10.62406       56.88109       36.58025
O          9.75257       56.63379       37.40173
C         10.19379       57.67741       34.27283
H         12.19239       59.12960       34.83898
H          9.65397       58.73012       36.07449
H          9.25337       57.08548       34.24532
H         10.06780       58.56632       33.62012
H         11.01595       57.05069       33.86229
N         11.70405       56.07156       36.44806
C         11.89818       54.84029       37.20232
C         11.89015       55.11826       38.69726
O         11.10961       54.50675       39.41370
C         13.22322       54.17222       36.78638
C         13.26147       53.82044       35.28290
C         14.57490       53.21289       34.92113
O         14.64896       52.00149       34.36041
O         15.60772       53.82442       35.12228
H         12.42757       56.37016       35.77957
H         11.07563       54.12857       36.96452
H         13.34455       53.23918       37.37145
H         14.06945       54.85219       37.03075
H         13.15293       54.72279       34.65083
H         12.43636       53.11938       35.03430
N         12.71516       56.05780       39.23071
C         12.73283       56.38201       40.63964
H         13.45141       57.20999       40.82503
H         11.72476       56.71318       40.96834
H         13.04973       55.49684       41.22915
H         13.33711       56.58196       38.60938
Ca        16.78073       51.34057       34.25429
O         17.88740       54.53855       32.39178
H         17.99661       54.72879       33.35671
H         18.44874       55.21622       31.93679
O         15.09747       53.69261       31.68063
H         15.73988       53.09283       31.22521
H         14.37546       53.83304       31.01827

Ca 1.0



