%chk=holoCaM-CaMKII.loop3.water2.frame180.chk
%nprocshared=20
%mem=10GB
%nosave
#b3lyp/svp scf=(tight,noincore,xqc) Test 
#IOP(5/87=12) Density=Current Pop=(MK,readradii) iop(6/33=2) iop(6/42=6)

holoCaM-CaMKII.loop3.water2.frame180 

   0  1 
C         87.75933       53.42681       21.16287
C         87.11736       52.34343       21.98134
O         86.13273       52.61452       22.64997
H         88.64682       53.04756       20.61267
H         87.03024       53.82335       20.42631
H         88.08995       54.25057       21.83037
N         87.63906       51.08682       21.98779
C         87.11149       49.98540       22.77822
C         88.14949       49.60782       23.81795
O         88.74833       48.54254       23.75699
C         86.69291       48.82316       21.85072
C         86.36139       47.59853       22.66198
O         86.97869       46.56687       22.46864
O         85.48990       47.67820       23.68496
H         88.48099       50.89804       21.42187
H         86.19707       50.27694       23.34376
H         87.51886       48.57364       21.14996
H         85.81172       49.14223       21.25336
N         88.37977       50.46472       24.84511
C         89.29047       50.16548       25.94083
C         88.78139       48.95852       26.72114
O         89.53266       48.00923       26.89492
C         89.46379       51.39239       26.86639
C         90.02940       52.60450       26.09453
C         90.30828       53.79651       27.01915
C         90.84235       55.02834       26.26125
N         89.84436       55.60888       25.35755
H         87.85289       51.35098       24.85538
H         90.30100       49.94047       25.52955
H         90.17791       51.11952       27.67488
H         88.49335       51.66972       27.33320
H         89.30198       52.91008       25.32031
H         90.97899       52.31638       25.59204
H         91.07712       53.48537       27.75988
H         89.38680       54.08115       27.57138
H         91.75946       54.76025       25.69067
H         91.12309       55.79838       27.01311
H         89.61108       54.95473       24.57811
H         88.97760       55.85462       25.88914
H         90.23524       56.48220       24.93600
N         87.49972       48.92058       27.19855
C         86.96314       47.80859       27.99328
C         86.97987       46.44492       27.29485
O         86.77209       45.44959       27.97531
C         85.52648       48.10974       28.47807
C         84.52342       48.15511       27.35094
O         84.61388       48.98908       26.46430
O         83.51066       47.26907       27.32339
H         86.90290       49.74247       27.02416
H         87.61577       47.72705       28.89104
H         85.50701       49.07429       29.02936
H         85.21797       47.31178       29.18903
N         87.22064       46.30979       25.96226
C         87.36248       45.02214       25.30182
C         86.11709       44.15843       25.30673
O         86.21005       43.03600       25.78325
H         87.36736       47.14953       25.39049
H         88.20557       44.47226       25.77428
H         87.65192       45.18218       24.24953
N         84.93792       44.57744       24.75025
C         83.77061       43.70336       24.61524
C         83.31660       43.51250       23.16468
O         82.45635       42.66639       22.96139
C         82.60517       44.16877       25.51806
C         81.96900       45.49271       25.16784
N         80.92944       45.94537       25.90581
O         82.36973       46.15501       24.22466
H         84.87212       45.53781       24.40315
H         84.03991       42.68709       24.97609
H         82.97255       44.22138       26.56571
H         81.80483       43.39743       25.47823
H         80.57145       45.39692       26.70149
H         80.47518       46.84129       25.68022
N         83.82104       44.23269       22.11160
C         83.43298       43.98093       20.72447
C         82.65828       45.11338       20.07073
O         82.26668       44.94177       18.92508
H         84.51694       44.97252       22.27594
H         82.78269       43.08332       20.65472
H         84.34810       43.76689       20.13198
N         82.36641       46.27792       20.71928
C         81.53419       47.33375       20.13592
C         81.67341       48.62842       20.97035
O         83.01828       48.93292       21.05177
C         80.05241       46.88688       20.01726
C         79.44207       46.42687       21.32901
C         78.45732       47.19955       21.96708
C         79.82943       45.20680       21.91707
C         77.89233       46.77132       23.17473
C         79.26216       44.77936       23.11743
C         78.29351       45.56274       23.75418
O         77.74149       45.16228       24.91721
H         82.74626       46.42564       21.66388
H         81.92559       47.58041       19.12310
H         79.94604       46.06228       19.28095
H         79.47749       47.74466       19.60580
H         78.13251       48.13845       21.53710
H         80.55830       44.56652       21.44981
H         77.14137       47.38021       23.66109
H         79.57681       43.83683       23.54910
H         77.99608       44.33281       25.34717
N         80.96048       49.78717       20.40081
C         81.18956       51.03949       21.17444
C         79.88212       51.78408       21.37094
O         78.87822       51.44491       20.75724
C         82.24188       52.04397       20.53721
C         81.80359       52.56405       19.13802
C         83.68272       51.51308       20.51117
C         82.70131       53.67414       18.58554
H         81.16732       49.90008       19.38479
H         81.52164       50.77301       22.20433
H         82.28773       52.92369       21.21108
H         80.78079       52.98928       19.21287
H         81.78361       51.74095       18.39537
H         84.40078       52.31600       20.25221
H         83.97725       51.16168       21.52298
H         83.80108       50.71163       19.75440
H         82.28990       54.03123       17.61840
H         82.74112       54.52821       19.29456
H         83.72844       53.30529       18.38907
N         79.85449       52.85335       22.21533
C         78.72096       53.74785       22.38801
C         79.13974       55.16481       22.01739
O         80.29183       55.37835       21.66202
C         78.23752       53.67980       23.84724
O         79.25684       54.08621       24.71939
H         80.70535       53.07171       22.75589
H         77.87718       53.44812       21.72853
H         77.94531       52.63170       24.07956
H         77.34912       54.33614       23.97806
H         78.85829       54.09777       25.62800
N         78.25534       56.19504       22.08668
C         78.62867       57.58264       21.82629
C         79.67412       58.05042       22.82437
O         80.69349       58.58727       22.41632
C         77.39862       58.48982       21.92073
H         77.28064       55.98604       22.35502
H         79.02482       57.67976       20.78968
H         77.68538       59.54103       21.70104
H         76.64063       58.17318       21.17299
H         76.94511       58.44442       22.93353
N         79.48293       57.84160       24.15880
C         80.41505       58.26305       25.20138
C         81.82400       57.77076       24.93988
O         82.73918       58.58280       24.96225
C         79.93672       57.75301       26.56635
H         78.63006       57.33673       24.44566
H         80.43318       59.37503       25.24563
H         80.62537       58.09617       27.36792
H         78.92195       58.14831       26.78538
H         79.89638       56.64224       26.57953
N         82.07106       56.46187       24.65263
C         83.41166       55.94997       24.37592
C         84.04809       56.72688       23.23682
O         85.10136       57.31573       23.43934
C         83.37699       54.44761       24.02475
C         82.90864       53.57054       25.19630
C         82.87686       52.12205       24.80317
O         81.71897       51.43858       24.85486
O         83.89665       51.55460       24.44610
H         81.26605       55.82139       24.60057
H         84.04554       56.07768       25.28284
H         84.40399       54.12949       23.74914
H         82.71559       54.28863       23.14781
H         81.89086       53.86799       25.52027
H         83.59930       53.69572       26.05762
N         83.44939       56.79737       22.01793
C         84.00844       57.56667       20.92897
H         85.01162       57.17397       20.66079
H         83.34576       57.49972       20.04016
H         84.09338       58.63418       21.22639
H         82.55975       56.30785       21.86105
Ca        83.57002       48.61823       23.18168
O         81.45521       49.51079       27.34409
H         80.58617       49.97959       27.27449
H         82.10529       50.22366       27.56742
O         80.00477       49.12150       24.50965
H         79.94801       49.10667       23.52215
H         79.17942       49.58388       24.80128

Ca 1.0



