%chk=holoCaM.loop2.water2.frame71.chk
%nprocshared=20
%mem=10GB
%nosave
#b3lyp/svp scf=(tight,noincore,xqc) Test 
#IOP(5/87=12) Density=Current Pop=(MK,readradii) iop(6/33=2) iop(6/42=6)

holoCaM.loop2.water2.frame71 

   -2  1 
C         69.93973       24.26670       16.40574
C         68.81072       25.07255       15.83081
O         67.81193       24.50049       15.42041
H         70.78343       24.91815       16.72266
H         69.57290       23.72690       17.30444
H         70.31509       23.53874       15.66012
N         68.88220       26.42737       15.83247
C         67.77220       27.28760       15.44642
C         67.45435       27.26386       13.94227
O         68.31074       26.96589       13.12190
C         68.06820       28.69600       15.96741
C         67.07651       29.70324       15.52603
O         67.52501       30.59979       14.83007
O         65.73508       29.66587       15.82067
H         69.72935       26.86176       16.23431
H         66.86654       26.94006       15.98533
H         69.07024       29.00619       15.58791
H         68.14361       28.71166       17.06889
N         66.16672       27.51685       13.55473
C         65.61855       27.44753       12.20300
C         64.74282       28.67495       11.86206
O         64.04893       28.63790       10.85545
C         64.78726       26.15876       12.13053
H         65.48496       27.69522       14.29868
H         66.41602       27.35317       11.43517
H         65.45654       25.28711       12.30500
H         63.98971       26.14503       12.90271
H         64.32253       26.03407       11.13045
N         64.74429       29.80199       12.63554
C         63.90480       30.98732       12.38765
C         64.49861       32.32614       12.90249
O         64.14906       33.36444       12.36038
C         62.46481       30.74667       12.90296
C         62.45146       30.18348       14.29049
O         63.06809       30.83969       15.26902
O         61.91697       29.11186       14.52932
H         65.37981       29.79983       13.42537
H         63.85053       31.14752       11.29061
H         61.95135       30.00974       12.25418
H         61.88755       31.69732       12.88100
N         65.40300       32.38253       13.91266
C         66.00463       33.57349       14.48730
C         65.02910       34.22941       15.42022
O         64.99257       35.44900       15.49162
H         65.60318       31.53417       14.40257
H         66.42679       34.25569       13.71679
H         66.86940       33.25022       15.11381
N         64.22829       33.45286       16.20763
C         63.20955       33.97763       17.09958
C         63.71858       33.99880       18.53511
O         62.99423       34.46238       19.40362
C         61.85739       33.20547       16.94183
C         61.80827       31.80933       17.52596
N         60.64808       31.11487       17.56129
O         62.81229       31.29657       17.97952
H         64.38343       32.44072       16.20453
H         62.99782       35.02997       16.81188
H         61.56947       33.15053       15.86748
H         61.07556       33.78616       17.47252
H         59.77741       31.50241       17.17385
H         60.61844       30.18691       18.00488
N         64.97556       33.55818       18.85417
C         65.53189       33.62946       20.19553
C         64.87180       32.69066       21.19350
O         65.06056       32.88002       22.38529
H         65.60121       33.20840       18.11686
H         65.47216       34.68270       20.53788
H         66.60894       33.35087       20.15871
N         64.17578       31.59952       20.77236
C         63.65050       30.54328       21.64192
C         63.72815       29.18145       20.96520
O         63.84467       29.09455       19.75242
C         62.17972       30.80579       22.11792
C         62.10930       31.79123       23.27833
O         61.29643       31.20688       21.09196
H         64.18234       31.43122       19.76811
H         64.32950       30.43559       22.51537
H         61.77709       29.85467       22.52723
H         61.80200       31.49092       20.29300
H         61.05584       31.87870       23.62367
H         62.70855       31.39310       24.12688
H         62.48234       32.79281       22.99244
N         63.65281       28.05534       21.73229
C         63.68658       26.70323       21.19515
C         62.27054       26.24473       20.93954
O         61.44712       26.19216       21.84278
C         64.59757       25.75021       22.05444
C         66.00273       25.65502       21.38699
C         64.00135       24.34068       22.24664
C         67.03711       24.82231       22.14453
H         63.50914       28.16475       22.74719
H         64.13348       26.72510       20.18999
H         64.68809       26.17702       23.07648
H         66.41640       26.67827       21.27100
H         65.89420       25.20551       20.37164
H         63.00367       24.40068       22.72795
H         63.91513       23.80154       21.28155
H         64.62595       23.74736       22.94462
H         67.19946       25.23882       23.15887
H         66.73283       23.75791       22.21604
H         67.99914       24.84776       21.58810
N         61.94656       25.89458       19.66629
C         60.66999       25.39362       19.23057
C         60.66962       23.88840       19.43437
O         61.70284       23.34750       19.78410
C         60.47163       25.81720       17.74857
C         60.62060       27.32690       17.57209
O         61.79674       27.97112       17.87411
O         59.62341       27.97933       17.30264
H         62.68162       25.88731       18.95615
H         59.86307       25.83693       19.85464
H         59.46467       25.48065       17.41851
H         61.22083       25.32430       17.08883
N         59.54065       23.14715       19.30936
C         59.50968       21.70433       19.55668
C         60.39056       20.92345       18.57607
O         61.21632       20.16178       19.06065
C         58.05235       21.21628       19.60796
C         57.90919       19.74523       19.92790
C         58.46972       19.18895       21.09543
C         57.17985       18.91630       19.06037
C         58.30767       17.82819       21.37673
C         57.01145       17.56024       19.35165
C         57.57666       17.01552       20.50692
H         58.66349       23.63778       19.07824
H         59.91604       21.52617       20.57807
H         57.54210       21.46136       18.65390
H         57.54365       21.78418       20.41887
H         59.03181       19.79949       21.79007
H         56.73026       19.32252       18.16324
H         58.74454       17.40391       22.27206
H         56.43911       16.93280       18.68139
H         57.44501       15.96455       20.72919
N         60.34646       21.06840       17.21263
C         61.26674       20.38417       16.30318
C         62.73584       20.65052       16.60936
O         63.54399       19.75419       16.41212
C         60.84457       20.87472       14.90899
C         60.16416       22.20222       15.18509
C         59.42860       21.92482       16.48541
H         61.13600       19.28160       16.34409
H         61.65002       20.90959       14.14218
H         60.04496       20.19304       14.54675
H         60.94743       22.96316       15.39271
H         59.51125       22.57542       14.36502
H         59.19849       22.89632       16.95246
H         58.49250       21.35005       16.30593
N         63.15851       21.83635       17.10643
C         64.55839       22.11329       17.43263
C         64.97776       21.31594       18.65654
O         66.04120       20.71231       18.65358
C         64.73889       23.62135       17.64120
C         64.31516       24.34122       16.33908
C         64.26040       25.80340       16.47077
O         64.52773       26.38483       17.64215
O         63.90035       26.47181       15.51970
H         62.45085       22.56773       17.27105
H         65.21606       21.85742       16.57041
H         65.80616       23.86218       17.86053
H         64.12603       23.95284       18.50773
H         63.28886       24.06846       16.03176
H         65.01313       24.07491       15.51936
N         64.13369       21.21959       19.71824
C         64.39968       20.44035       20.90337
H         65.24898       20.87575       21.46705
H         63.49701       20.45213       21.55509
H         64.61102       19.38619       20.62792
H         63.22671       21.68093       19.66419
Ca        63.80156       28.78119       16.86703
O         66.54066       27.80904       18.53988
H         65.82892       27.58786       19.18018
H         67.17284       27.05248       18.59334
O         66.11576       30.81604       18.15729
H         66.07634       30.14658       18.87972
H         67.04736       31.14665       18.17347

Ca 1.0



