%chk=holoCaM-CaMKII.loop3.water1.frame467.chk
%nprocshared=20
%mem=10GB
%nosave
#b3lyp/svp scf=(tight,noincore,xqc) Test 
#IOP(5/87=12) Density=Current Pop=(MK,readradii) iop(6/33=2) iop(6/42=6)

holoCaM-CaMKII.loop3.water1.frame467 

   0  1 
C         72.76324       50.38033       60.32200
C         73.15390       49.21807       59.45883
O         73.47094       49.41284       58.29350
H         71.71779       50.24130       60.66728
H         73.43382       50.43787       61.20574
H         72.83199       51.33531       59.75879
N         73.17296       47.96296       59.98519
C         73.54931       46.78886       59.20995
C         72.45384       46.47961       58.19344
O         71.31018       46.29604       58.58657
C         73.79545       45.59443       60.15358
C         74.59101       44.50297       59.49564
O         74.17264       43.92228       58.51571
O         75.79722       44.17250       59.98596
H         72.95040       47.85314       60.98705
H         74.52632       47.00924       58.72223
H         72.83544       45.20795       60.55893
H         74.41426       45.94490       61.00752
N         72.73288       46.44144       56.86409
C         71.72441       46.24703       55.81799
C         71.04955       44.87966       55.86455
O         69.96506       44.72698       55.31867
C         72.42047       46.43918       54.45291
C         71.46466       46.49440       53.25971
C         72.20279       47.00269       52.01375
C         71.21280       47.30505       50.88462
N         71.88550       47.94380       49.75455
H         73.70789       46.60995       56.58285
H         70.95690       47.04315       55.94146
H         73.19421       45.65289       54.28934
H         72.93083       47.42434       54.50920
H         70.66428       47.22287       53.50757
H         71.00332       45.50163       53.06239
H         72.97469       46.27139       51.68392
H         72.71292       47.95625       52.27416
H         70.43694       48.00350       51.27079
H         70.71112       46.36954       50.55256
H         72.56480       47.28197       49.31563
H         71.16804       48.22448       49.04791
H         72.38703       48.80502       50.07497
N         71.72022       43.81613       56.37393
C         71.30603       42.42287       56.27504
C         71.27423       41.71279       57.63007
O         70.93496       40.53742       57.66014
C         72.27989       41.70125       55.31031
C         73.72949       41.71422       55.76561
O         74.40746       42.87676       55.92866
O         74.29680       40.65661       55.96866
H         72.63285       44.00708       56.77767
H         70.28474       42.35434       55.83343
H         72.21999       42.18397       54.31104
H         71.93975       40.64808       55.18873
N         71.60178       42.35171       58.79152
C         71.57468       41.72212       60.10155
C         72.64059       40.66648       60.36290
O         72.60785       40.11960       61.45588
H         71.81766       43.35467       58.77473
H         70.56857       41.27564       60.26188
H         71.72063       42.50939       60.87172
N         73.59711       40.29787       59.45543
C         74.52091       39.19242       59.74219
C         75.52394       39.50516       60.84920
O         76.15152       38.56945       61.33037
C         75.26247       38.71494       58.47491
C         76.37902       39.63873       58.07920
N         77.63718       39.17990       57.91650
O         76.14959       40.82039       57.91893
H         73.61133       40.74108       58.52854
H         73.88200       38.33949       60.06013
H         74.53330       38.62163       57.64296
H         75.69079       37.70548       58.65442
H         77.86776       38.18325       58.04262
H         78.37967       39.83617       57.64817
N         75.78252       40.78389       61.25827
C         76.74081       41.10190       62.30609
C         77.92666       41.91970       61.83206
O         78.76194       42.21921       62.67221
H         75.28897       41.57218       60.81232
H         77.15182       40.18004       62.76962
H         76.21345       41.66737       63.10496
N         78.07984       42.33967       60.53638
C         79.21625       43.15838       60.12516
C         78.89698       43.98844       58.85190
O         78.62772       43.14519       57.76620
C         80.54486       42.32743       60.08655
C         80.64064       41.18582       59.08605
C         80.81582       41.42224       57.70786
C         80.61975       39.85395       59.54075
C         80.93466       40.35598       56.80819
C         80.74376       38.78883       58.64111
C         80.89607       39.03669       57.26945
O         81.00158       38.01990       56.38966
H         77.35091       42.13065       59.84461
H         79.35268       43.94188       60.90600
H         80.68799       41.91001       61.10421
H         81.42049       42.99061       59.92241
H         80.87575       42.42957       57.32055
H         80.50387       39.63568       60.59447
H         81.05764       40.55553       55.75048
H         80.71549       37.77168       59.01078
H         80.96555       37.09300       56.66658
N         80.05542       44.84144       58.53540
C         79.78696       46.03141       57.71552
C         81.01390       46.23886       56.85119
O         82.10099       46.42378       57.38191
C         79.50998       47.31581       58.58704
C         78.16614       47.19173       59.34949
C         79.51408       48.59357       57.71260
C         77.88262       48.33515       60.32732
H         80.61045       45.12044       59.37892
H         78.91484       45.85632       57.04749
H         80.33452       47.42627       59.32664
H         78.16086       46.25988       59.94730
H         77.33463       47.15173       58.62199
H         80.49904       48.73255       57.22323
H         78.72616       48.54460       56.93320
H         79.36957       49.51013       58.31595
H         76.91010       48.14867       60.83046
H         78.67947       48.38692       61.09829
H         77.79820       49.31406       59.81505
N         80.88454       46.28904       55.49814
C         81.97186       46.66549       54.60529
C         81.83995       48.13288       54.25626
O         80.88088       48.75854       54.66787
C         81.92569       45.79237       53.33733
O         80.68345       45.93462       52.69977
H         79.94232       46.19230       55.09599
H         82.95505       46.53749       55.10709
H         82.07846       44.73129       53.63424
H         82.73031       46.09260       52.63193
H         80.59189       45.17467       52.06920
N         82.78856       48.75660       53.50722
C         82.66700       50.14172       53.05812
C         81.47828       50.28865       52.12826
O         80.74224       51.25865       52.24615
C         83.94025       50.56940       52.33015
H         83.61868       48.21444       53.22567
H         82.55118       50.82309       53.93220
H         83.85109       51.62547       51.99585
H         84.80332       50.49625       53.02619
H         84.12769       49.92063       51.44910
N         81.19847       49.31039       51.22004
C         80.02493       49.31174       50.35305
C         78.75971       49.49117       51.17379
O         77.97288       50.38337       50.89337
C         79.96147       47.98299       49.57776
H         81.82657       48.49155       51.18557
H         80.10480       50.13952       49.61573
H         79.87841       47.11786       50.27195
H         79.08805       47.96780       48.89310
H         80.88470       47.84755       48.97454
N         78.52917       48.67346       52.23098
C         77.35628       48.73985       53.09337
C         77.25498       50.05875       53.84909
O         76.14913       50.54794       54.03051
C         77.41924       47.55089       54.06215
C         76.15157       47.36683       54.89243
C         76.20119       46.03727       55.57117
O         76.27300       45.02158       54.89821
O         76.15156       45.94975       56.91006
H         79.23528       47.94916       52.42521
H         76.44633       48.59933       52.46824
H         78.29727       47.64153       54.73303
H         77.54908       46.64205       53.43116
H         75.26659       47.36596       54.22545
H         76.04953       48.18807       55.63459
N         78.36808       50.68202       54.32451
C         78.35730       51.90847       55.09356
H         78.91328       52.69466       54.54034
H         77.32985       52.27127       55.29953
H         78.86966       51.73132       56.06368
H         79.28364       50.28054       54.12123
Ca        76.51199       43.14681       56.82542
O         78.27870       42.03670       54.89488
H         78.18605       41.15096       55.32779
H         79.04062       42.46306       55.36108

Ca 1.0



