%chk=holoCaM-CaMKII.loop4.water1.frame473.chk
%nprocshared=20
%mem=10GB
%nosave
#b3lyp/svp scf=(tight,noincore,xqc) Test 
#IOP(5/87=12) Density=Current Pop=(MK,readradii) iop(6/33=2) iop(6/42=6)

holoCaM-CaMKII.loop4.water1.frame473 

   -3  1 
C         83.53725       43.59598       61.36498
C         83.27092       42.89760       60.06693
O         82.43503       42.00555       60.03235
H         84.30926       44.38608       61.24721
H         82.60142       44.07048       61.72691
H         83.89432       42.85950       62.11315
N         83.93960       43.26522       58.94171
C         83.69011       42.65099       57.64897
C         84.09241       41.18215       57.65467
O         85.17308       40.88045       58.14285
C         84.46807       43.38758       56.55094
C         83.93330       43.03335       55.20167
O         84.44074       43.52232       54.21479
O         82.81323       42.29456       55.08601
H         84.62089       44.03857       59.00104
H         82.60818       42.77905       57.43343
H         85.55608       43.17373       56.63031
H         84.31630       44.48549       56.65033
N         83.29734       40.22288       57.08949
C         83.58289       38.79334       57.16354
C         84.06104       38.20855       55.83406
O         84.73918       37.19145       55.86800
C         82.31135       38.06284       57.70913
C         82.58246       36.68698       58.35363
C         81.24119       37.89049       56.60459
C         83.46694       36.77363       59.59987
H         82.43641       40.51101       56.61795
H         84.42072       38.67055       57.87452
H         81.87833       38.69790       58.51598
H         83.02155       35.97964       57.61977
H         81.60525       36.27403       58.69182
H         80.31325       37.44715       57.02266
H         80.97898       38.85578       56.13021
H         81.59905       37.20582       55.80735
H         84.49945       37.08528       59.35073
H         83.03331       37.49055       60.33109
H         83.52482       35.77540       60.07996
N         83.67814       38.73810       54.63108
C         84.03329       38.15043       53.33537
C         84.76480       39.12940       52.40354
O         85.07879       38.74409       51.28593
C         82.78465       37.50083       52.69520
C         81.64157       38.41900       52.37071
O         81.71830       39.74168       52.59133
O         80.61924       37.94977       51.89759
H         83.05828       39.55826       54.63099
H         84.73729       37.30196       53.48277
H         82.40597       36.73025       53.40328
H         83.08493       36.97703       51.76197
N         85.16276       40.36432       52.82778
C         86.05366       41.24248       52.07626
C         85.44661       41.97079       50.88988
O         86.01938       41.92102       49.81123
H         84.95092       40.65259       53.79258
H         86.96413       40.67874       51.77233
H         86.39282       42.04293       52.76792
N         84.33771       42.74566       51.04513
C         83.82202       43.68409       50.03996
C         83.63181       45.09526       50.64011
O         83.03379       45.93735       49.98488
C         82.53785       43.12708       49.37217
C         81.54468       42.63318       50.36469
O         81.23417       41.45374       50.39082
O         81.14239       43.44134       51.34206
H         83.84393       42.69644       51.94652
H         84.53613       43.80761       49.19677
H         82.82564       42.26445       48.73272
H         82.08296       43.89762       48.71405
N         84.19514       45.45335       51.83482
C         84.14601       46.79219       52.41280
C         82.82058       47.21864       53.02805
O         82.78461       48.32413       53.54630
H         84.80219       44.78100       52.31226
H         84.47026       47.53459       51.65181
H         84.88260       46.83364       53.24660
N         81.70668       46.42681       53.03255
C         80.44013       46.82759       53.66323
C         80.00008       45.78935       54.69418
O         80.61002       44.73644       54.77278
C         79.39084       47.15767       52.56979
C         79.07863       46.02358       51.57702
C         78.18380       44.97164       52.16430
N         76.89387       45.27166       52.44288
O         78.60321       43.84058       52.35130
H         81.75397       45.51052       52.57712
H         80.59027       47.77212       54.23006
H         79.83104       47.98524       51.97128
H         78.45239       47.54814       53.01989
H         80.02289       45.60110       51.19021
H         78.54689       46.43484       50.69301
H         76.52054       46.21084       52.24509
H         76.25127       44.56526       52.82015
N         79.00080       46.06783       55.58974
C         78.62461       45.15453       56.67429
C         77.11577       44.90140       56.65487
O         76.34475       45.81508       56.90606
C         79.12863       45.74119       58.03245
C         78.62049       44.96882       59.25964
C         80.67088       45.73934       58.06946
H         78.54798       46.99239       55.55342
H         79.12763       44.17264       56.54650
H         78.76454       46.78759       58.13097
H         78.97080       43.92097       59.23574
H         79.00397       45.43971       60.19119
H         77.51341       44.99426       59.31452
H         81.05661       44.69795       57.99525
H         81.09810       46.33183       57.23547
H         81.04268       46.17568       59.02109
N         76.63855       43.65300       56.36051
C         75.22515       43.26874       56.39760
C         74.76755       43.06844       57.84140
O         75.56577       43.21073       58.75369
C         74.99165       41.92224       55.64546
C         75.12413       41.98656       54.14007
N         76.31491       42.16456       53.52931
O         74.12484       41.83051       53.45280
H         77.32269       42.93201       56.11802
H         74.60167       44.04944       55.90829
H         73.94666       41.59708       55.82144
H         75.64511       41.12162       56.05423
H         77.18338       42.27577       54.06036
H         76.37043       42.17349       52.49983
N         73.48364       42.68521       58.11158
C         73.00361       42.32279       59.44232
C         73.73214       41.08907       59.96694
O         74.24106       41.12797       61.07832
C         71.49027       42.00956       59.40005
C         70.95585       41.76585       60.79138
C         70.93167       42.81631       61.72404
C         70.49364       40.49594       61.17489
C         70.45780       42.60158       63.01932
C         70.02593       40.28117       62.47589
C         70.00737       41.33502       63.40246
O         69.56260       41.14347       64.66050
H         72.81415       42.62879       57.32994
H         73.16148       43.18665       60.12507
H         71.32221       41.12134       58.75109
H         70.92808       42.85712       58.95230
H         71.27856       43.80389       61.44665
H         70.50873       39.66964       60.47480
H         70.44505       43.42153       63.72618
H         69.68193       39.29582       62.76371
H         69.24964       40.28200       64.97045
N         73.81029       39.95292       59.20560
C         74.44794       38.70046       59.63902
C         75.93375       38.83423       59.97997
O         76.51948       37.86822       60.44918
C         74.24519       37.60439       58.56416
C         75.01212       37.88611       57.25686
C         74.65305       36.88538       56.19733
O         74.87345       35.57223       56.39789
O         74.15942       37.26011       55.14527
H         73.36064       39.97816       58.27852
H         73.91977       38.36974       60.56058
H         73.15562       37.53433       58.35067
H         74.57356       36.61922       58.96450
H         76.10655       37.83671       57.44250
H         74.77221       38.90137       56.87951
N         76.59329       40.00753       59.79897
C         77.97115       40.26610       60.17081
C         77.97245       41.05590       61.46384
O         78.62513       40.63416       62.40840
C         78.64090       41.05104       59.03247
C         78.77731       40.19114       57.77711
C         79.29790       41.00004       56.62993
O         80.40883       41.74063       56.76429
O         78.70603       40.99784       55.56633
H         76.09080       40.80454       59.40150
H         78.54048       39.32485       60.35053
H         79.65626       41.38175       59.34568
H         78.02853       41.94675       58.79928
H         77.80179       39.74543       57.48322
H         79.48040       39.37260       58.01343
N         77.21251       42.17926       61.59782
C         77.10076       42.93455       62.82672
H         76.04838       42.89133       63.18162
H         77.75634       42.53858       63.62947
H         77.36968       43.99260       62.63190
H         76.64377       42.50183       60.80751
Ca        81.53299       42.48958       53.29346
O         78.58597       40.23406       52.86705
H         77.99923       39.53157       53.24561
H         78.83327       39.89932       51.97021

Ca 1.0



