%chk=holoCaM.loop1.water2.frame158.chk
%nprocshared=20
%mem=10GB
%nosave
#b3lyp/svp scf=(tight,noincore,xqc) Test 
#IOP(5/87=12) Density=Current Pop=(MK,readradii) iop(6/33=2) iop(6/42=6)

holoCaM.loop1.water2.frame158 

   0  1 
C         91.57114       58.52468       85.89223
C         92.67010       57.87568       86.67554
O         93.19771       56.85812       86.24943
H         90.65013       58.55065       86.51383
H         91.86173       59.56334       85.63099
H         91.35778       57.95753       84.96239
N         93.05159       58.41840       87.86263
C         94.06386       57.82967       88.72997
C         93.64131       56.41532       89.11556
O         92.62871       56.24858       89.78089
C         94.25067       58.75227       89.95232
C         95.09453       58.16161       91.02331
O         96.23543       57.82586       90.78938
O         94.58802       58.00752       92.25807
H         92.57736       59.28443       88.16508
H         95.03002       57.78372       88.17648
H         93.26153       58.97940       90.40298
H         94.70831       59.70825       89.61184
N         94.35448       55.34525       88.65343
C         93.88182       53.96734       88.73271
C         94.40301       53.23946       89.96870
O         93.86641       52.18914       90.29042
C         94.35031       53.20883       87.45737
C         93.57319       51.92243       87.12357
C         92.16660       52.25648       86.59710
C         91.40304       51.00775       86.14867
N         90.11151       51.38115       85.56999
H         95.13313       55.54564       88.02010
H         92.77418       54.00812       88.75568
H         95.43501       52.98047       87.56810
H         94.25977       53.86886       86.56591
H         93.53636       51.23053       87.99002
H         94.11846       51.40644       86.30243
H         92.27352       52.93111       85.71829
H         91.56901       52.77748       87.37182
H         91.24291       50.33763       87.02180
H         91.99651       50.45870       85.38395
H         90.25913       51.97947       84.72393
H         89.59735       50.51735       85.28443
H         89.53774       51.90441       86.27078
N         95.50479       53.68116       90.64857
C         96.12045       52.94574       91.75756
C         96.19707       53.76355       93.04553
O         96.76304       53.27513       94.01386
C         97.49901       52.39144       91.32038
C         98.54411       53.41063       90.96126
O         98.29989       54.72610       91.06684
O         99.64014       53.03503       90.57701
H         95.96982       54.54152       90.32676
H         95.51873       52.04545       92.00746
H         97.33754       51.73765       90.43541
H         97.91026       51.75801       92.13641
N         95.59398       54.97950       93.16091
C         95.56747       55.74599       94.39664
C         96.91450       56.32165       94.76373
O         97.35349       56.15584       95.89207
H         95.06671       55.36381       92.36423
H         95.13999       55.13747       95.22258
H         94.88940       56.61144       94.25475
N         97.59391       57.06754       93.85222
C         98.80666       57.83229       94.13101
C         98.58705       59.32237       93.84374
O         99.53346       60.08733       93.96604
C        100.01993       57.21828       93.38650
C         99.91690       57.10724       91.89126
O         98.86390       57.61339       91.23382
O        100.77089       56.48930       91.27661
H         97.19953       57.12177       92.90685
H         99.06906       57.76291       95.20948
H        100.13167       56.18157       93.77380
H        100.94582       57.77627       93.64367
N         97.34708       59.81876       93.53440
C         97.05184       61.23325       93.36332
C         97.59262       61.85493       92.09494
O         97.36418       63.04403       91.91647
H         96.53469       59.19102       93.50636
H         97.42279       61.79203       94.24985
H         95.94758       61.36091       93.32452
N         98.30708       61.15082       91.17123
C         98.84965       61.75408       89.95783
C         98.40024       61.01597       88.70754
O         97.79076       59.95718       88.79159
C        100.39708       61.80487       90.04220
C        100.88101       62.84870       91.05646
O        100.93398       60.53925       90.33802
H         98.50141       60.15484       91.33526
H         98.47846       62.79645       89.83917
H        100.81185       62.12969       89.06412
H        100.80915       60.36058       91.30737
H        100.52414       63.85692       90.75555
H        100.50665       62.62223       92.07639
H        101.99150       62.86165       91.07397
N         98.65706       61.57618       87.49180
C         98.31273       60.99066       86.20406
C         99.59652       60.84835       85.38712
O        100.32886       61.81498       85.22333
C         97.20662       61.84713       85.50550
C         95.88867       61.72327       86.33041
C         96.97585       61.38574       84.05418
C         94.67811       62.45691       85.74704
H         99.11687       62.50070       87.47169
H         97.87320       59.97876       86.33106
H         97.53081       62.91043       85.46254
H         96.06250       62.12097       87.35258
H         95.60676       60.64972       86.42323
H         96.23434       62.03041       83.54053
H         97.90748       61.47129       83.46035
H         96.61522       60.34079       84.03143
H         94.37937       62.02834       84.76776
H         93.81066       62.32756       86.42967
H         94.89053       63.53941       85.63518
N         99.88936       59.65347       84.80348
C        101.03959       59.36852       83.95641
C        100.57543       59.36279       82.51523
O         99.42651       59.68239       82.25693
C        101.65444       57.98286       84.32440
C        102.27010       57.95607       85.72571
O        100.70385       56.95738       84.14802
H         99.18504       58.91740       84.85840
H        101.82022       60.15479       84.05274
H        102.50304       57.75079       83.65173
H        100.28750       56.74286       85.02141
H        102.70182       56.95096       85.92821
H        103.07916       58.71188       85.80712
H        101.48947       58.16563       86.47259
N        101.41431       59.00946       81.51030
C        100.99999       58.96812       80.11449
C         99.82078       58.01339       79.92318
O         98.79857       58.43518       79.40185
C        102.20204       58.55624       79.23275
C        101.86194       58.58620       77.74351
O        103.26714       59.44811       79.45938
H        102.38551       58.75765       81.74562
H        100.69059       59.99397       79.80841
H        102.49991       57.51417       79.50525
H        104.06630       58.90895       79.69805
H        102.75400       58.28495       77.15549
H        101.03566       57.88304       77.51116
H        101.56381       59.61313       77.44144
N         99.90347       56.71174       80.32346
C         98.84736       55.72107       80.10172
C         97.51219       56.13395       80.70479
O         96.50737       56.09214       80.00832
C         99.28636       54.31711       80.60132
C         99.46812       54.17279       82.12557
C         99.98007       52.77203       82.49212
C        100.08124       52.53510       84.01101
N        101.05780       53.41234       84.65775
H        100.77529       56.40744       80.78127
H         98.70527       55.61269       79.00299
H        100.24478       54.06539       80.09692
H         98.52652       53.57305       80.27415
H         98.48869       54.31453       82.62458
H        100.18723       54.93368       82.48650
H        100.97375       52.60173       82.02366
H         99.26939       52.01958       82.08602
H        100.39257       51.47942       84.17254
H         99.08338       52.67247       84.48436
H        101.13728       53.14393       85.66494
H        101.99550       53.30974       84.20665
H        100.74436       54.40526       84.61335
N         97.43654       56.55347       81.99571
C         96.19240       56.92087       82.67198
C         95.51563       58.05320       81.91352
O         94.35113       57.92707       81.56146
C         96.48706       57.30757       84.14391
C         97.11302       56.13269       84.94073
C         97.60838       56.55148       86.29396
O         98.35987       57.49723       86.40928
O         97.32244       55.85416       87.39413
H         98.32466       56.63681       82.50911
H         95.50188       56.04805       82.69768
H         95.55489       57.63845       84.65342
H         97.19543       58.15662       84.13126
H         98.00705       55.75147       84.42026
H         96.39139       55.29128       85.03076
N         96.21942       59.16155       81.56229
C         95.66512       60.23276       80.76463
H         94.82722       60.71921       81.30399
H         96.45111       60.99288       80.56076
H         95.30871       59.83490       79.79006
H         97.20273       59.22656       81.83470
Ca        98.14796       56.85337       89.23164
O        100.44329       55.11365       87.65690
H        100.13572       54.96719       88.58613
H        101.36245       54.74675       87.64132
O        101.01480       58.07427       88.92751
H        101.09231       58.96149       88.49645
H        101.94690       57.74628       88.98911

Ca 1.0



