%chk=holoCaM.loop2.water1.frame35.chk
%nprocshared=20
%mem=10GB
%nosave
#b3lyp/svp scf=(tight,noincore,xqc) Test 
#IOP(5/87=12) Density=Current Pop=(MK,readradii) iop(6/33=2) iop(6/42=6)

holoCaM.loop2.water1.frame35 

   -2  1 
C         69.01771      112.50422       19.56161
C         67.72105      113.09287       19.08668
O         67.31146      112.82837       17.96565
H         69.72603      113.32672       19.80142
H         68.84620      111.89914       20.47625
H         69.47550      111.86116       18.78066
N         67.03057      113.93475       19.90241
C         65.79508      114.61023       19.51791
C         66.01020      115.45781       18.27308
O         66.86809      116.32914       18.27740
C         65.29964      115.48314       20.69342
C         64.20370      116.43896       20.30179
O         63.01803      116.00760       19.83460
O         64.40235      117.63467       20.41400
H         67.42373      114.11730       20.83947
H         65.01873      113.85011       19.30390
H         66.15055      116.09499       21.06255
H         64.96611      114.82818       21.52748
N         65.22092      115.25753       17.17750
C         65.32580      116.01119       15.93612
C         64.06043      116.81572       15.63650
O         64.03635      117.47455       14.60607
C         65.62592      115.03515       14.79448
H         64.49640      114.52988       17.22340
H         66.16715      116.73577       15.99071
H         66.56534      114.48181       15.00914
H         64.79883      114.30259       14.67669
H         65.75900      115.58428       13.83793
N         62.99835      116.86285       16.49877
C         61.81250      117.69321       16.27985
C         61.74659      118.84225       17.28542
O         60.80219      119.61799       17.23046
C         60.53409      116.84265       16.42957
C         60.50753      115.63882       15.53644
O         60.39081      114.41058       16.07669
O         60.56130      115.76414       14.32422
H         63.03699      116.33166       17.37735
H         61.83110      118.14239       15.26301
H         59.64295      117.46904       16.20584
H         60.45401      116.49723       17.48062
N         62.70293      119.00823       18.24185
C         62.66133      120.03163       19.27093
C         61.45558      119.88766       20.17482
O         60.79128      120.88302       20.42408
H         63.51238      118.37702       18.26438
H         62.70155      121.04543       18.81747
H         63.56613      119.92339       19.90502
N         61.10925      118.67240       20.69419
C         59.99741      118.46885       21.62098
C         60.42178      117.71525       22.89119
O         59.57434      117.49062       23.74415
C         58.82534      117.77208       20.90425
C         59.05616      116.31501       20.60268
N         58.22389      115.38034       21.11407
O         59.98448      115.97144       19.88931
H         61.63714      117.85106       20.38580
H         59.60067      119.45880       21.93621
H         58.59988      118.31639       19.96089
H         57.92784      117.86235       21.55419
H         57.42967      115.64368       21.71583
H         58.37009      114.38667       20.90433
N         61.71679      117.33268       23.10669
C         62.19803      116.75460       24.35251
C         62.04375      115.25073       24.51445
O         62.56682      114.76101       25.50558
H         62.44158      117.59490       22.42650
H         61.76810      117.30043       25.22052
H         63.29632      116.92872       24.38455
N         61.39462      114.44061       23.62330
C         61.38021      112.97435       23.76275
C         61.96729      112.31463       22.48479
O         63.11685      113.00054       22.12974
C         59.95451      112.47023       24.10288
C         59.52289      112.89589       25.51580
O         59.01897      112.89274       23.14460
H         60.91876      114.86138       22.81111
H         62.04490      112.65686       24.59600
H         59.94458      111.36180       24.11912
H         58.78459      113.83834       23.33563
H         58.51450      112.48705       25.73968
H         60.23589      112.49331       26.26710
H         59.49009      114.00149       25.61062
N         62.35907      110.91447       22.69751
C         63.00331      110.27061       21.52083
C         62.03460      109.30636       20.84927
O         61.44209      108.48796       21.53965
C         64.30866      109.53933       21.96251
C         65.28094      110.52855       22.66440
C         65.00346      108.89703       20.73934
C         66.53367      109.85713       23.23704
H         61.63459      110.32366       23.16018
H         63.33047      111.02759       20.77136
H         64.03392      108.73940       22.68437
H         64.76170      111.00807       23.52068
H         65.59049      111.33004       21.95643
H         65.89949      108.31598       21.02986
H         64.33288      108.17884       20.23569
H         65.30583      109.67733       20.00690
H         67.16895      109.41731       22.44255
H         67.14961      110.61331       23.76750
H         66.24576      109.06459       23.95995
N         61.88492      109.29476       19.49165
C         60.99859      108.36002       18.80428
C         61.77215      107.15180       18.29904
O         62.98536      107.10172       18.43439
C         60.27568      109.04816       17.62308
C         59.54744      110.29945       18.00835
O         58.20829      110.36910       17.88153
O         60.17160      111.27895       18.38253
H         62.47478      109.91559       18.92190
H         60.23337      107.98216       19.51830
H         59.53844      108.33895       17.19174
H         61.00808      109.31318       16.82932
N         61.10657      106.11737       17.71400
C         61.75146      104.90886       17.21317
C         62.79074      105.20233       16.13075
O         63.90598      104.73092       16.29610
C         60.69027      103.90515       16.71829
C         61.29477      102.58066       16.31605
C         61.98307      101.79365       17.25847
C         61.16573      102.11344       14.99767
C         62.53323      100.56463       16.88500
C         61.71671      100.88227       14.62918
C         62.39971      100.10873       15.57159
H         60.07950      106.18320       17.64264
H         62.27163      104.42885       18.07200
H         60.12338      104.34927       15.87611
H         59.96338      103.71193       17.53698
H         62.09199      102.12623       18.28295
H         60.63908      102.70016       14.25547
H         63.06082       99.96463       17.61544
H         61.61261      100.52705       13.61248
H         62.82394       99.15536       15.28497
N         62.54930      105.96398       15.01383
C         63.57180      106.26277       14.01865
C         64.72058      107.06356       14.61813
O         65.86496      106.72583       14.34629
C         62.79809      106.98963       12.90772
C         61.66388      107.65870       13.64678
C         61.28435      106.59152       14.67065
H         63.99930      105.34206       13.56092
H         63.40557      107.63923       12.24126
H         62.31451      106.21056       12.27464
H         62.07470      108.54305       14.17198
H         60.82033      108.01158       13.01618
H         60.78005      107.10382       15.50657
H         60.62302      105.82268       14.21762
N         64.50491      108.10576       15.46889
C         65.58950      108.90026       16.04649
C         66.49063      108.08219       16.96495
O         67.57450      108.55229       17.28186
C         65.01339      110.06930       16.86480
C         64.17807      111.03590       16.00761
C         63.48176      112.06800       16.84165
O         63.61054      112.08173       18.18104
O         62.76735      112.89395       16.29989
H         63.53606      108.33446       15.72170
H         66.20404      109.30476       15.21082
H         65.83420      110.64523       17.34599
H         64.37964      109.63165       17.66483
H         63.38570      110.49432       15.45492
H         64.84109      111.53749       15.27011
N         66.09065      106.88258       17.47305
C         66.89328      106.06894       18.36123
H         67.89388      106.50803       18.55240
H         66.36344      105.95531       19.33063
H         67.02854      105.06378       17.90936
H         65.15708      106.52817       17.25040
Ca        62.57764      113.88257       20.15619
O         58.81519      111.97059       20.58433
H         58.00514      112.14022       20.04072
H         58.59912      111.16516       21.11590

Ca 1.0



