%chk=holoCaM.loop4.water3.frame356.chk
%nprocshared=20
%mem=10GB
%nosave
#b3lyp/svp scf=(tight,noincore,xqc) Test 
#IOP(5/87=12) Density=Current Pop=(MK,readradii) iop(6/33=2) iop(6/42=6)

holoCaM.loop4.water3.frame356 

   -3  1 
C          4.24475       35.18045       70.39174
C          2.86663       35.21787       69.81029
O          1.92352       34.96177       70.54271
H          5.00757       35.48179       69.64504
H          4.28694       35.89842       71.24015
H          4.47217       34.16224       70.76562
N          2.66321       35.57984       68.51064
C          1.33713       35.90047       68.00642
C          1.26493       35.69379       66.49552
O          2.10404       36.23093       65.78585
C          1.05672       37.36953       68.37612
C         -0.37386       37.77009       68.22027
O         -0.72338       39.04672       68.46008
O         -1.23223       36.94388       67.95729
H          3.48231       35.85646       67.94856
H          0.58169       35.26247       68.51583
H          1.70982       38.03243       67.76937
H          1.29492       37.53898       69.44844
N          0.26749       34.94891       65.93495
C          0.15579       34.66670       64.50390
C         -1.05283       35.40256       63.89147
O         -1.17942       35.39453       62.67572
C          0.09023       33.10456       64.28585
C          1.19763       32.39042       65.11448
C          0.19321       32.71026       62.79848
C          1.24893       30.86499       64.97162
H         -0.44914       34.56031       66.55006
H          1.06152       35.05540       63.99037
H         -0.89023       32.73702       64.66765
H          0.99986       32.58914       66.18076
H          2.19728       32.80324       64.86592
H          1.17423       33.01936       62.38097
H          0.08005       31.61339       62.67414
H         -0.62141       33.14612       62.19346
H          1.58863       30.57419       63.95659
H          1.98670       30.45360       65.69385
H          0.25847       30.40894       65.18266
N         -1.99093       36.04056       64.66383
C         -3.21548       36.64112       64.11961
C         -3.60905       38.00381       64.70809
O         -4.55871       38.58472       64.19917
C         -4.39643       35.66492       64.32707
C         -4.69475       35.31054       65.77905
O         -3.90715       35.76313       66.79142
O         -5.65719       34.60458       66.02284
H         -1.89508       35.98172       65.67831
H         -3.09290       36.79429       63.02319
H         -4.18689       34.72781       63.76671
H         -5.30537       36.12022       63.87276
N         -2.98817       38.56506       65.78294
C         -3.39830       39.83682       66.36978
C         -4.79810       39.86951       66.99113
O         -5.20959       40.95719       67.36876
H         -2.17261       38.10263       66.18349
H         -3.34285       40.61107       65.57560
H         -2.67858       40.12610       67.16451
N         -5.59548       38.76448       67.12816
C         -6.98666       38.82453       67.60683
C         -7.16453       39.22301       69.08072
O         -8.29991       39.25739       69.53579
C         -7.71729       37.47844       67.33698
C         -7.28959       36.31396       68.18433
O         -6.34138       36.45101       69.11684
O         -7.83708       35.23270       68.04624
H         -5.23585       37.85919       66.80663
H         -7.51566       39.57426       66.98021
H         -7.58623       37.20424       66.26839
H         -8.80280       37.62213       67.52321
N         -6.11210       39.51059       69.89376
C         -6.23285       39.76123       71.32100
C         -6.61763       38.49703       72.05816
O         -7.46498       38.55286       72.93354
H         -5.16347       39.52799       69.50935
H         -6.92146       40.60926       71.53493
H         -5.22814       40.04491       71.70231
N         -5.95619       37.33640       71.77278
C         -6.10910       36.04050       72.44598
C         -5.03878       35.00720       71.93442
O         -3.87072       35.62785       71.45715
C         -7.48695       35.34349       72.22419
C         -8.73130       35.97746       72.86059
C         -9.92214       35.06166       72.71810
N        -10.44624       34.79189       71.49952
O        -10.42297       34.56326       73.71532
H         -5.23117       37.42007       71.05205
H         -5.92906       36.21505       73.53192
H         -7.42050       34.33809       72.69235
H         -7.65112       35.19043       71.13704
H         -9.00350       36.93424       72.38057
H         -8.52612       36.13708       73.94262
H        -10.05255       35.22047       70.64928
H        -11.26016       34.16589       71.40739
N         -4.68983       34.09666       73.04241
C         -3.63693       33.10211       72.77242
C         -4.21076       31.83898       72.11865
O         -5.16403       31.27806       72.64071
C         -2.90859       32.73845       74.10085
C         -1.60065       31.98564       73.80560
C         -2.56147       33.98174       74.93718
H         -5.50296       33.68732       73.55498
H         -2.85957       33.56177       72.13335
H         -3.57457       32.09941       74.72189
H         -1.09684       31.68122       74.74646
H         -1.80107       31.07737       73.22253
H         -0.90152       32.62848       73.22422
H         -3.48351       34.51854       75.24364
H         -2.03595       33.67737       75.86847
H         -1.90993       34.67694       74.36630
N         -3.60573       31.28723       71.02744
C         -3.96690       29.99610       70.43662
C         -3.06387       28.91620       71.02036
O         -2.16808       29.24688       71.76514
C         -3.78886       30.10778       68.89899
C         -4.12736       28.87328       68.10721
N         -5.37446       28.35347       68.13429
O         -3.27034       28.35093       67.41050
H         -2.74454       31.72690       70.69477
H         -5.01760       29.74217       70.69477
H         -2.73281       30.38972       68.68524
H         -4.43560       30.91474       68.51806
H         -6.11313       28.78951       68.70376
H         -5.60009       27.51386       67.58090
N         -3.25321       27.59432       70.77408
C         -2.34477       26.55988       71.28213
C         -0.95841       26.67505       70.65743
O          0.01971       26.63783       71.39127
C         -2.97373       25.15129       71.17396
C         -3.59480       24.80528       69.84141
C         -4.99782       24.77265       69.73724
C         -2.82005       24.51285       68.71022
C         -5.61414       24.47592       68.52379
C         -3.44111       24.20827       67.49246
C         -4.84130       24.19428       67.39630
O         -5.45507       23.91008       66.23075
H         -4.07651       27.31983       70.22439
H         -2.20924       26.69420       72.38102
H         -3.78967       25.15195       71.93040
H         -2.25920       24.36327       71.49789
H         -5.62027       24.99393       70.59595
H         -1.74069       24.51251       68.77033
H         -6.69504       24.46823       68.46325
H         -2.83528       23.98398       66.62423
H         -4.96083       23.70884       65.42418
N         -0.80151       26.89644       69.32299
C          0.49663       27.08987       68.67198
C          1.27457       28.21375       69.33877
O          2.43322       28.02084       69.67916
C          0.30608       27.41512       67.16655
C         -0.28478       26.24673       66.35453
C          0.62207       25.04659       66.35748
O          1.75321       25.13044       65.90558
O          0.19079       23.87200       66.85483
H         -1.65435       26.98055       68.75539
H          1.10635       26.16371       68.75255
H          1.28781       27.67741       66.71359
H         -0.35719       28.30246       67.05981
H         -0.42785       26.57047       65.30138
H         -1.27974       25.96880       66.75208
N          0.67708       29.40920       69.57807
C          1.34174       30.54944       70.21197
C          1.81026       30.18068       71.61465
O          2.99659       30.26496       71.89801
C          0.36091       31.74470       70.27574
C         -0.08061       32.19894       68.86946
C         -1.24234       33.15054       68.89051
O         -1.88003       33.34955       67.87079
O         -1.64798       33.72376       70.03216
H         -0.31420       29.48928       69.30935
H          2.22190       30.85383       69.60189
H          0.81389       32.60258       70.81633
H         -0.53069       31.41666       70.84459
H         -0.42272       31.33125       68.27626
H          0.77993       32.65249       68.34085
N          0.91413       29.75372       72.54081
C          1.25157       29.37783       73.89299
H          1.69309       30.24182       74.42987
H          0.32612       29.06735       74.42912
H          1.95618       28.52135       73.88699
H         -0.06131       29.68845       72.27134
Ca        -3.82834       35.65603       69.10884
O         -1.05024       36.32712       70.86254
H         -1.45003       36.57456       71.73182
H         -0.40907       35.61077       71.08698
O         -5.14746       33.20361       68.82284
H         -5.07130       33.08695       67.84342
H         -6.04016       33.60294       68.96110
O         -2.98069       38.31159       70.17334
H         -3.02180       39.21778       70.56738
H         -3.14281       38.44697       69.20614

Ca 1.0



