%chk=holoCaM-CaMKII.loop1.water2.frame322.chk
%nprocshared=20
%mem=10GB
%nosave
#b3lyp/svp scf=(tight,noincore,xqc) Test 
#IOP(5/87=12) Density=Current Pop=(MK,readradii) iop(6/33=2) iop(6/42=6)

holoCaM-CaMKII.loop1.water2.frame322 

   0  1 
C         37.98586       31.56429       68.28262
C         36.80994       31.30146       67.39062
O         36.04378       32.21990       67.13690
H         38.62387       32.34814       67.82092
H         37.63554       31.91223       69.27502
H         38.60322       30.65106       68.41817
N         36.62876       30.07210       66.83559
C         35.57592       29.80314       65.86935
C         34.19879       29.82208       66.52593
O         33.89020       28.93500       67.31016
C         35.83696       28.44093       65.20426
C         34.95216       28.14182       64.03844
O         34.15094       28.95623       63.60623
O         35.07678       26.94768       63.44567
H         37.31899       29.33308       67.04288
H         35.65188       30.58252       65.07635
H         35.72309       27.63573       65.96319
H         36.88056       28.40989       64.82280
N         33.32510       30.82685       66.25247
C         31.97129       30.89438       66.79289
C         31.05347       29.91465       66.07875
O         30.44113       29.09255       66.74622
C         31.41629       32.33696       66.68788
C         32.15936       33.34525       67.59903
C         32.04648       33.05106       69.11603
C         30.60369       32.97621       69.66013
N         29.88888       34.24600       69.52178
H         33.66110       31.59898       65.66419
H         31.97484       30.62697       67.86818
H         30.34036       32.35266       66.95610
H         31.47701       32.68618       65.63682
H         31.75510       34.36018       67.40313
H         33.23634       33.37316       67.32501
H         32.59704       33.83842       69.67443
H         32.55438       32.09361       69.35008
H         30.65113       32.71117       70.73933
H         30.03503       32.16463       69.15792
H         29.78121       34.50616       68.51620
H         28.93429       34.14514       69.93652
H         30.39999       35.00057       70.03473
N         30.87898       29.96591       64.72613
C         29.90089       29.13557       64.01895
C         30.40585       27.73564       63.66095
O         29.65641       26.99968       63.03296
C         29.31366       29.89332       62.80325
C         30.27964       30.22995       61.70053
O         29.86886       30.80657       60.70624
O         31.58544       29.91995       61.79003
H         31.39415       30.68702       64.20049
H         29.01783       28.98988       64.68100
H         28.86230       30.84306       63.16739
H         28.49411       29.28067       62.36759
N         31.62267       27.26640       64.06640
C         32.06931       25.89881       63.81924
C         32.38133       25.56148       62.36646
O         32.67471       24.40290       62.10785
H         32.21929       27.85876       64.65635
H         31.28531       25.20430       64.19314
H         32.98817       25.70206       64.41098
N         32.33614       26.48712       61.36499
C         32.52549       26.14620       59.95081
C         33.91416       25.60337       59.57255
O         34.04853       25.12765       58.45384
C         32.13603       27.34430       59.04662
C         32.91524       28.61650       59.27664
O         32.67001       29.59944       58.59662
O         33.84051       28.70880       60.24768
H         32.08254       27.45222       61.60634
H         31.80195       25.33285       59.72068
H         31.06479       27.58302       59.22432
H         32.24520       27.04528       57.98218
N         34.98536       25.65040       60.41440
C         36.31441       25.12762       60.09411
C         37.35489       26.22724       59.93078
O         38.52717       25.91733       59.77785
H         34.87217       26.10597       61.32051
H         36.30926       24.53739       59.15294
H         36.61885       24.44650       60.91711
N         36.97776       27.53165       59.88454
C         37.84588       28.67991       59.65037
C         37.68785       29.69991       60.82970
O         36.40921       29.59355       61.40407
C         37.49836       29.27081       58.25058
C         37.90772       28.32077       57.11061
O         36.13689       29.60914       58.16300
H         35.98001       27.73982       59.95694
H         38.92023       28.39284       59.61478
H         38.08814       30.19157       58.06521
H         35.62059       28.79288       57.93264
H         39.00206       28.13054       57.14896
H         37.37420       27.35000       57.18067
H         37.67112       28.78709       56.13036
N         38.06439       31.07146       60.42592
C         38.14707       32.17331       61.41720
C         38.13815       33.47090       60.60513
O         38.90120       33.57398       59.65235
C         39.40826       32.11330       62.34788
C         39.39190       30.84352       63.24286
C         39.45485       33.38180       63.23817
C         40.60625       30.70479       64.16423
H         38.99300       31.02209       59.94393
H         37.27630       32.17535       62.09418
H         40.32422       32.10211       61.71725
H         39.40359       29.94183       62.60549
H         38.46878       30.83029       63.86502
H         39.50682       34.30240       62.62423
H         38.55474       33.44049       63.88882
H         40.36148       33.41024       63.87179
H         41.54182       30.69986       63.56621
H         40.64948       31.51486       64.91903
H         40.53386       29.74685       64.72101
N         37.33718       34.52122       60.95150
C         37.27462       35.77527       60.20434
C         37.94580       36.88709       60.98780
O         38.37745       36.66670       62.11182
C         35.79794       36.17439       59.90378
C         35.02040       35.09187       59.16694
O         35.12857       36.46329       61.10198
H         36.79389       34.45622       61.81849
H         37.81952       35.67443       59.23997
H         35.81074       37.08295       59.25820
H         34.39506       37.09751       60.88508
H         34.94096       34.19422       59.81008
H         33.99065       35.45522       58.95512
H         35.51337       34.83474       58.20815
N         38.05337       38.12950       60.45172
C         38.57014       39.28094       61.18356
C         37.69692       39.55529       62.39870
O         38.21690       39.71664       63.49185
C         38.61592       40.53935       60.27634
C         39.63288       40.37248       59.13921
O         37.34297       40.80766       59.74297
H         37.71294       38.26881       59.48722
H         39.61205       39.08513       61.52626
H         38.94614       41.39816       60.90677
H         37.36442       41.73503       59.38989
H         39.36223       39.52852       58.47190
H         39.67149       41.30022       58.53029
H         40.64520       40.18914       59.55792
N         36.34352       39.60482       62.25776
C         35.41491       39.93190       63.33481
C         35.55854       38.97768       64.50727
O         35.72391       39.42973       65.63224
C         33.94733       39.90367       62.82710
C         33.65662       40.79298       61.59322
C         34.10420       42.25744       61.71661
C         33.40699       43.00787       62.85744
N         33.84347       44.40295       62.89637
H         35.96350       39.39679       61.32659
H         35.62783       40.96145       63.69383
H         33.28690       40.21956       63.66316
H         33.65680       38.86476       62.55671
H         32.56616       40.75445       61.38084
H         34.15867       40.37219       60.69835
H         33.86546       42.76680       60.75756
H         35.20643       42.30309       61.84990
H         33.64471       42.52949       63.83168
H         32.30596       42.97019       62.70362
H         34.87532       44.45121       63.06238
H         33.60988       44.87869       61.99451
H         33.35121       44.89453       63.67644
N         35.50557       37.63533       64.30408
C         35.58240       36.63461       65.36437
C         36.87584       36.78771       66.14824
O         36.81110       36.99154       67.35268
C         35.43873       35.21663       64.76310
C         34.04362       35.02205       64.11708
C         33.94568       33.70968       63.40900
O         34.79194       33.45199       62.40630
O         33.10935       32.88234       63.72220
H         35.41377       37.31841       63.33240
H         34.73315       36.78051       66.06894
H         35.56721       34.45107       65.55950
H         36.24395       35.06449       64.01171
H         33.84385       35.79821       63.35453
H         33.26161       35.09604       64.90250
N         38.08688       36.74487       65.53026
C         39.32599       36.95661       66.24904
H         40.18595       36.91400       65.54697
H         39.31775       37.95912       66.73011
H         39.45741       36.17518       67.02657
H         38.13234       36.58585       64.51724
Ca        35.08541       31.40680       61.58785
O         34.82053       31.92247       58.73866
H         34.10939       32.40782       58.25174
H         35.65593       32.15463       58.26022
O         32.46885       33.07984       60.46362
H         31.68241       32.72605       60.94736
H         32.10184       33.78788       59.87755

Ca 1.0



