%chk=holoCaM-CaMKII.loop4.water2.frame108.chk
%nprocshared=20
%mem=10GB
%nosave
#b3lyp/svp scf=(tight,noincore,xqc) Test 
#IOP(5/87=12) Density=Current Pop=(MK,readradii) iop(6/33=2) iop(6/42=6)

holoCaM-CaMKII.loop4.water2.frame108 

   -3  1 
C         35.02405       40.62645       68.45697
C         35.85774       41.11741       69.60232
O         35.35335       41.82277       70.46288
H         33.98209       41.00104       68.53072
H         35.46697       40.97634       67.50006
H         35.01055       39.51563       68.46217
N         37.16827       40.76736       69.66510
C         38.07232       41.16728       70.73550
C         38.19464       42.68608       70.82984
O         38.43825       43.34333       69.82790
C         39.44286       40.50943       70.50346
C         40.41444       40.85447       71.58396
O         41.46392       41.40309       71.29940
O         40.13301       40.56307       72.86663
H         37.53604       40.16723       68.90924
H         37.68248       40.76778       71.69979
H         39.85334       40.82184       69.51847
H         39.31569       39.40447       70.49916
N         38.07553       43.28776       72.04786
C         38.13382       44.72708       72.29362
C         39.41846       45.04728       73.05730
O         40.17720       45.90224       72.62352
C         36.88731       45.18432       73.12413
C         35.55795       44.66756       72.51215
C         36.87233       46.72208       73.26064
C         34.33341       44.94689       73.39153
H         37.95004       42.67546       72.86222
H         38.13528       45.28393       71.32881
H         36.96888       44.74088       74.14065
H         35.61154       43.56385       72.41861
H         35.40033       45.09638       71.49933
H         37.81255       47.09190       73.71835
H         36.75220       47.19790       72.26316
H         36.04867       47.06463       73.91806
H         34.47968       44.51193       74.40400
H         34.13157       46.03223       73.48573
H         33.43563       44.47656       72.93788
N         39.72252       44.36763       74.20188
C         40.90796       44.59320       75.03289
C         42.18847       44.47713       74.23105
O         42.98216       45.40710       74.21739
C         40.96620       43.52402       76.16125
C         39.77432       43.58717       77.06092
O         38.79396       42.67417       76.94368
O         39.62059       44.53752       77.80992
H         39.06889       43.63029       74.49696
H         40.85505       45.60964       75.48268
H         41.88477       43.62566       76.77815
H         40.99031       42.51413       75.69858
N         42.46135       43.31912       73.58103
C         43.70351       43.02087       72.89226
C         44.36781       41.83573       73.56025
O         45.53388       41.92805       73.91562
H         41.73935       42.58933       73.60208
H         44.39878       43.88905       72.88434
H         43.47432       42.77123       71.83720
N         43.65501       40.69629       73.79920
C         44.18173       39.50480       74.45203
C         43.97391       38.25279       73.59474
O         44.34260       37.17368       74.03727
C         43.56672       39.37504       75.86717
C         42.07214       39.20008       75.95267
O         41.49298       39.13080       77.16603
O         41.37606       39.12182       74.95548
H         42.66407       40.67600       73.53653
H         45.27711       39.61088       74.61369
H         43.82602       40.29806       76.43151
H         44.04196       38.51750       76.38977
N         43.44534       38.32464       72.33506
C         43.33532       37.19348       71.42963
C         42.21180       36.21696       71.71653
O         42.04557       35.32007       70.90455
H         43.19884       39.23968       71.93453
H         44.31075       36.66537       71.36572
H         43.11198       37.59913       70.41787
N         41.38117       36.32167       72.79575
C         40.22395       35.44295       72.98437
C         38.94788       36.26490       73.02667
O         39.01081       37.48460       73.05111
C         40.40144       34.58793       74.25483
C         41.53657       33.56744       74.06563
C         41.75329       32.72448       75.29409
N         42.20113       33.28073       76.44334
O         41.54563       31.52108       75.24500
H         41.54363       37.05624       73.49484
H         40.10522       34.75550       72.11938
H         39.46933       34.01658       74.46057
H         40.60178       35.24961       75.12338
H         42.49120       34.07748       73.81784
H         41.26315       32.90547       73.21335
H         42.40428       34.28934       76.49639
H         42.36462       32.69716       77.27727
N         37.73543       35.63431       72.96950
C         36.46566       36.35018       72.94159
C         35.62749       35.88872       74.11881
O         35.20664       34.74158       74.15104
C         35.74524       36.10952       71.58104
C         34.37884       36.81062       71.51272
C         36.61151       36.60533       70.41098
H         37.71131       34.60608       72.90717
H         36.63816       37.44474       73.03563
H         35.57641       35.01737       71.44957
H         33.70323       36.43044       72.30263
H         34.49273       37.90910       71.62234
H         33.88894       36.60368       70.53695
H         36.79780       37.69813       70.49731
H         37.58707       36.07688       70.38902
H         36.10063       36.40815       69.44403
N         35.36788       36.74890       75.14331
C         34.53275       36.40540       76.29487
C         33.07895       36.29939       75.82553
O         32.81797       36.63542       74.68079
C         34.72758       37.52952       77.35182
C         34.25835       37.30505       78.76792
N         34.42212       38.29454       79.67757
O         33.77642       36.24275       79.12077
H         35.79753       37.68315       75.10365
H         34.90324       35.44522       76.71571
H         34.26962       38.46076       76.96016
H         35.82043       37.69994       77.45355
H         34.84723       39.19362       79.40508
H         34.12696       38.16500       80.65626
N         32.06698       35.86132       76.62511
C         30.67447       35.89526       76.18813
C         30.25679       37.33240       75.93675
O         29.76641       37.63076       74.85680
C         29.74005       35.26693       77.24533
C         28.29358       35.34043       76.80065
C         27.86705       34.68006       75.63418
C         27.36445       36.09497       77.53700
C         26.53904       34.78129       75.20920
C         26.03706       36.19487       77.10955
C         25.62068       35.53994       75.94165
O         24.34571       35.63475       75.51335
H         32.27477       35.50604       77.56308
H         30.57115       35.30340       75.25130
H         29.87127       35.80492       78.20988
H         30.01880       34.20433       77.41247
H         28.56204       34.09247       75.04812
H         27.66847       36.61712       78.43557
H         26.22508       34.27351       74.30570
H         25.33511       36.78629       77.68371
H         23.68130       36.15593       75.98635
N         30.43198       38.27534       76.90654
C         30.01089       39.66589       76.75783
C         30.60550       40.33872       75.52982
O         30.02646       41.30776       75.05855
C         30.30447       40.46667       78.04862
C         31.80976       40.58479       78.36752
C         32.02477       41.20595       79.71778
O         32.64930       42.24859       79.82664
O         31.55203       40.59480       80.82197
H         30.86090       37.97483       77.79437
H         28.90829       39.64310       76.61058
H         29.79318       39.94180       78.88572
H         29.87080       41.48784       77.97111
H         32.31166       41.19096       77.58205
H         32.28945       39.58674       78.38883
N         31.75556       39.88572       74.95750
C         32.30407       40.45106       73.73278
C         31.51134       39.95675       72.54276
O         30.97368       40.77399       71.80795
C         33.82237       40.16718       73.63310
C         34.50227       40.88723       74.80823
C         35.98789       41.00301       74.74271
O         36.46146       42.12505       74.68461
O         36.82944       39.96521       74.91258
H         32.27335       39.12352       75.41754
H         32.21166       41.56185       73.75930
H         34.19560       40.60279       72.68047
H         34.05327       39.08046       73.64526
H         34.21963       40.43240       75.77690
H         34.12449       41.93417       74.81689
N         31.35401       38.62630       72.31475
C         30.54787       38.11758       71.22770
H         29.50594       38.49350       71.32243
H         30.97367       38.43860       70.25462
H         30.52357       37.00747       71.26356
H         31.79156       37.95042       72.95063
Ca        38.77560       40.94312       75.47691
O         37.45841       39.67391       77.84540
H         37.83994       39.94628       78.71650
H         36.64014       40.22259       77.74598
O         38.92921       37.16472       76.64733
H         38.86988       37.22788       77.63357
H         39.89769       37.07288       76.46689

Ca 1.0



