%chk=holoCaM-CaMKII.loop2.water1.frame499.chk
%nprocshared=20
%mem=10GB
%nosave
#b3lyp/svp scf=(tight,noincore,xqc) Test 
#IOP(5/87=12) Density=Current Pop=(MK,readradii) iop(6/33=2) iop(6/42=6)

holoCaM-CaMKII.loop2.water1.frame499 

   -2  1 
C        -10.39851      -14.72133      112.19715
C        -11.43859      -14.22085      113.16302
O        -11.23841      -14.29903      114.36610
H         -9.51084      -15.12404      112.72906
H        -10.82894      -15.51884      111.55598
H        -10.06444      -13.88404      111.54542
N        -12.57274      -13.64739      112.68057
C        -13.60352      -13.03647      113.51494
C        -14.40877      -14.03995      114.32732
O        -14.96564      -14.96250      113.74864
C        -14.57167      -12.23762      112.62639
C        -15.63118      -11.57036      113.45396
O        -15.28288      -10.72289      114.44095
O        -16.80876      -11.81695      113.25284
H        -12.66504      -13.57623      111.65436
H        -13.12045      -12.30560      114.18915
H        -15.04755      -12.91276      111.88057
H        -14.00230      -11.45549      112.07914
N        -14.59685      -13.84213      115.66841
C        -15.47631      -14.66879      116.49316
C        -16.57119      -13.87006      117.21916
O        -17.33520      -14.49739      117.94032
C        -14.61785      -15.38186      117.54256
H        -14.10084      -13.06186      116.12656
H        -15.97724      -15.44337      115.87344
H        -15.24148      -16.05619      118.16796
H        -13.83646      -15.99288      117.04454
H        -14.12301      -14.63830      118.20566
N        -16.67412      -12.50587      117.15284
C        -17.53753      -11.72472      118.05143
C        -18.49116      -10.74639      117.34321
O        -19.24887      -10.08168      118.03679
C        -16.62164      -11.04503      119.09162
C        -15.58622      -10.19738      118.42600
O        -14.40825      -10.51624      118.44047
O        -15.97259       -9.09145      117.78921
H        -16.02485      -11.98384      116.55143
H        -18.20003      -12.39799      118.63790
H        -16.10425      -11.85279      119.65461
H        -17.20423      -10.44257      119.82204
N        -18.58302      -10.66586      115.98506
C        -19.64136       -9.94025      115.28584
C        -19.57484       -8.42008      115.24476
O        -20.45333       -7.86033      114.60177
H        -17.97861      -11.26690      115.41255
H        -20.62647      -10.25254      115.69809
H        -19.62110      -10.26244      114.22151
N        -18.60397       -7.66561      115.84214
C        -18.56854       -6.20289      115.68768
C        -18.18715       -5.73446      114.27018
O        -18.14018       -4.52940      114.06251
C        -17.71987       -5.50422      116.78157
C        -16.27628       -5.96085      116.95622
N        -15.57733       -5.12844      117.92686
O        -15.54839       -6.00402      115.77722
H        -17.89764       -8.13008      116.42652
H        -19.59189       -5.80776      115.88059
H        -18.21207       -5.68230      117.76265
H        -17.73643       -4.40680      116.60300
H        -15.99334       -5.29366      118.87003
H        -14.58209       -5.44036      117.96989
N        -17.96315       -6.59870      113.23279
C        -17.70303       -6.16227      111.86218
C        -16.31511       -5.58382      111.61981
O        -16.04814       -5.18714      110.49494
H        -18.06190       -7.60873      113.38161
H        -18.48396       -5.42871      111.56211
H        -17.79772       -7.04034      111.18761
N        -15.38171       -5.51308      112.60808
C        -14.03706       -4.96544      112.45729
C        -12.98097       -5.95329      112.91910
O        -13.13466       -6.56160      113.96932
C        -13.87432       -3.67974      113.30130
C        -14.74922       -2.54754      112.77368
O        -14.18946       -3.90692      114.65140
H        -15.64118       -5.85096      113.53132
H        -13.82932       -4.68170      111.40144
H        -12.82022       -3.32033      113.21249
H        -13.37453       -4.26569      115.09049
H        -14.48206       -2.32333      111.71857
H        -15.82359       -2.81917      112.83030
H        -14.57466       -1.63453      113.38104
N        -11.80673       -6.05152      112.23731
C        -10.65773       -6.79850      112.74190
C        -10.18271       -6.14122      114.04029
O         -9.81718       -4.97391      114.00984
C         -9.51357       -6.83167      111.67314
C        -10.00236       -7.56339      110.39044
C         -8.24729       -7.51501      112.22896
C         -8.99444       -7.54271      109.23903
H        -11.70545       -5.51049      111.36556
H        -10.95800       -7.84879      112.92996
H         -9.24677       -5.78251      111.41394
H        -10.92131       -7.07723      110.00523
H        -10.25549       -8.61924      110.63158
H         -7.41330       -7.47959      111.50111
H         -7.87641       -6.98359      113.12513
H         -8.45334       -8.57385      112.48647
H         -8.73895       -6.49559      108.97135
H         -8.06961       -8.09824      109.49137
H         -9.44340       -8.03605      108.35129
N        -10.13132       -6.84631      115.20954
C         -9.55013       -6.31592      116.44558
C         -8.07836       -6.67434      116.49965
O         -7.60287       -7.32679      115.58832
C        -10.27493       -6.89086      117.68175
C        -11.71234       -6.47553      117.74587
O        -12.48671       -6.79471      116.86120
O        -12.15761       -5.76174      118.79746
H        -10.38748       -7.84227      115.18868
H         -9.62116       -5.20561      116.46471
H         -9.78195       -6.52510      118.60711
H        -10.21306       -8.00163      117.67722
N         -7.27373       -6.26089      117.51855
C         -5.84805       -6.57380      117.55889
C         -5.60860       -8.08897      117.60817
O         -4.89186       -8.56074      116.73837
C         -5.14198       -5.81471      118.70495
C         -3.64374       -6.00093      118.69047
C         -2.86883       -5.47648      117.64009
C         -3.00416       -6.68275      119.73973
C         -1.47843       -5.62633      117.64645
C         -1.61483       -6.83780      119.73712
C         -0.85209       -6.30684      118.69377
H         -7.67884       -5.67852      118.26773
H         -5.39411       -6.18129      116.61988
H         -5.54225       -6.11479      119.68243
H         -5.35127       -4.72675      118.61384
H         -3.33746       -4.93886      116.82527
H         -3.58014       -7.09791      120.55737
H         -0.88565       -5.21097      116.84151
H         -1.12919       -7.36638      120.54699
H          0.22419       -6.42102      118.69813
N         -6.17579       -8.93140      118.53912
C         -5.99876      -10.38449      118.54009
C         -6.24993      -11.02069      117.18758
O         -5.44524      -11.82556      116.73925
C         -7.06464      -10.87940      119.53118
C         -7.10863       -9.74916      120.52194
C         -7.08273       -8.53461      119.60095
H         -4.97780      -10.62509      118.91227
H         -8.06955      -10.89724      119.04904
H         -6.86619      -11.88668      119.95582
H         -7.95954       -9.76925      121.23525
H         -6.15517       -9.77592      121.09916
H         -8.07919       -8.32244      119.15853
H         -6.74499       -7.69018      120.21676
N         -7.35964      -10.67654      116.47936
C         -7.71720      -11.24018      115.18245
C         -6.59403      -11.00853      114.18218
O         -6.12034      -11.96653      113.58807
C         -9.05781      -10.64266      114.68588
C        -10.21917      -10.95016      115.66415
C        -11.55642      -10.42424      115.22550
O        -12.61907      -10.58300      116.03658
O        -11.70193       -9.86371      114.15226
H         -7.96711       -9.95229      116.88876
H         -7.87307      -12.33737      115.28749
H         -9.30136      -11.08114      113.69310
H         -8.95367       -9.54481      114.56976
H        -10.02002      -10.49631      116.65418
H        -10.30914      -12.04855      115.79832
N         -6.07601       -9.76588      113.99389
C         -4.95971       -9.49925      113.11545
H         -4.07913      -10.09957      113.42960
H         -5.23085       -9.74173      112.06801
H         -4.68492       -8.42314      113.17594
H         -6.45748       -8.98240      114.52473
Ca       -14.87321       -8.10062      116.12666
O        -15.46718       -8.48113      112.87618
H        -16.32829       -8.96312      112.80416
H        -15.17083       -8.37201      111.93930

Ca 1.0



