%chk=holoCaM-CaMKII.loop2.water2.frame239.chk
%nprocshared=20
%mem=10GB
%nosave
#b3lyp/svp scf=(tight,noincore,xqc) Test 
#IOP(5/87=12) Density=Current Pop=(MK,readradii) iop(6/33=2) iop(6/42=6)

holoCaM-CaMKII.loop2.water2.frame239 

   -2  1 
C         89.41420       34.11468       38.72987
C         90.71234       34.67947       39.23797
O         90.93313       34.67807       40.43981
H         88.55658       34.68809       39.13428
H         89.36746       34.13859       37.61940
H         89.32888       33.05288       39.04746
N         91.64453       35.13907       38.36094
C         92.98691       35.54563       38.75486
C         93.01928       36.81428       39.60468
O         92.57432       37.85386       39.13760
C         93.83574       35.79222       37.48761
C         95.28715       35.97721       37.80452
O         96.07233       36.26574       36.91723
O         95.73834       35.77325       39.05341
H         91.41798       35.10623       37.35436
H         93.43907       34.69411       39.31046
H         93.45025       36.69159       36.95915
H         93.76194       34.92671       36.79632
N         93.61244       36.80722       40.83571
C         93.86456       38.00763       41.62642
C         95.34880       38.07808       42.00948
O         95.65792       38.15659       43.19066
C         92.95832       37.99323       42.86530
H         93.94062       35.91198       41.21592
H         93.61236       38.92040       41.04392
H         91.89259       37.96123       42.55427
H         93.17107       37.10389       43.49723
H         93.11540       38.91317       43.46938
N         96.32561       38.04102       41.05120
C         97.76681       38.08134       41.34001
C         98.60328       38.09959       40.05687
O         99.31335       39.07428       39.85089
C         98.23295       36.96994       42.33290
C         97.59352       35.61291       42.16357
O         97.77164       34.85233       41.07028
O         96.87574       35.19151       43.05473
H         96.02771       37.99007       40.06693
H         97.99062       39.04642       41.85040
H         97.94822       37.31129       43.35212
H         99.34150       36.89529       42.34455
N         98.58946       37.07198       39.16082
C         99.38425       37.02859       37.94344
C        100.37014       35.87058       37.92672
O        101.06467       35.73103       36.92999
H         97.98640       36.27129       39.32794
H         99.96486       37.96584       37.80694
H         98.69476       36.93067       37.07885
N        100.53437       35.03097       38.99385
C        101.57996       34.00879       39.04539
C        101.44959       32.89297       38.00986
O        102.44454       32.22202       37.77332
C        101.70892       33.41615       40.46832
C        100.47530       32.71354       40.99049
N        100.50176       32.14187       42.21360
O         99.45063       32.66253       40.32910
H         99.97063       35.18489       39.83923
H        102.53830       34.53251       38.83088
H        101.94717       34.24112       41.17412
H        102.55629       32.69772       40.48198
H        101.35069       32.17720       42.79496
H         99.67222       31.65845       42.57845
N        100.27395       32.60477       37.38405
C        100.14476       31.58629       36.34763
C         99.30504       30.39282       36.75717
O         99.05469       29.55909       35.89746
H         99.43158       33.12848       37.64433
H        101.13392       31.18871       36.03393
H         99.68525       32.06777       35.45845
N         98.87833       30.20048       38.03855
C         98.11076       29.03232       38.46371
C         96.79315       29.44128       39.09324
O         96.55948       30.62086       39.32230
C         98.94265       28.19551       39.47736
C        100.17949       27.58291       38.81991
O         99.35464       28.99027       40.56189
H         99.13670       30.88334       38.75921
H         97.85833       28.38737       37.59423
H         98.34822       27.33042       39.85224
H         98.58560       29.05718       41.18500
H        100.73883       26.97681       39.56507
H         99.87451       26.91410       37.98668
H        100.85442       28.37141       38.42706
N         95.90024       28.47584       39.44894
C         94.71056       28.73193       40.24304
C         95.09805       28.45208       41.67906
O         95.57605       27.36202       41.96784
C         93.51528       27.83686       39.79035
C         93.16867       28.07999       38.29867
C         92.28412       28.10176       40.68744
C         92.11388       27.10942       37.75336
H         96.15054       27.48976       39.27525
H         94.39469       29.79479       40.14904
H         93.81635       26.77182       39.90881
H         94.08112       27.93180       37.68337
H         92.81871       29.12544       38.15264
H         92.51985       27.90490       41.75209
H         91.94764       29.15666       40.58933
H         91.43926       27.43170       40.43564
H         91.13607       27.22853       38.26119
H         91.95131       27.30645       36.67296
H         92.46131       26.06045       37.87050
N         94.90330       29.39530       42.63784
C         95.24498       29.20002       44.04053
C         93.99344       28.87906       44.81445
O         92.93537       28.81784       44.20927
C         95.92090       30.46807       44.58616
C         97.15938       30.79463       43.81082
O         97.24172       31.85286       43.20875
O         98.18260       29.91997       43.77531
H         94.41982       30.26594       42.37796
H         95.92845       28.33012       44.16184
H         96.20026       30.33153       45.65136
H         95.20654       31.32011       44.51833
N         94.02561       28.59025       46.14316
C         92.82015       28.20344       46.86160
C         91.81259       29.35317       46.94509
O         90.66377       29.10910       46.60888
C         93.13370       27.57430       48.23565
C         91.92261       26.86276       48.80153
C         91.35865       27.26125       50.02392
C         91.35032       25.77630       48.10710
C         90.24068       26.59163       50.53537
C         90.23329       25.11477       48.61953
C         89.67784       25.52184       49.83292
H         94.93484       28.57831       46.63253
H         92.36223       27.38199       46.26863
H         93.51756       28.33305       48.94222
H         93.92893       26.80729       48.10996
H         91.78128       28.08816       50.57987
H         91.76617       25.43382       47.16795
H         89.80918       26.90166       51.47751
H         89.80090       24.28468       48.07479
H         88.81307       25.00551       50.22873
N         92.14681       30.63902       47.31929
C         91.19762       31.75928       47.34981
C         90.51731       32.08520       46.02027
O         89.68633       32.98296       45.98796
C         92.07165       32.96579       47.72542
C         93.16210       32.33299       48.55247
C         93.45963       31.07003       47.75190
H         90.44387       31.52904       48.13472
H         92.58017       33.35270       46.80979
H         91.52326       33.80802       48.19937
H         94.04624       32.97991       48.73717
H         92.71660       32.03655       49.52886
H         94.07328       31.29289       46.85155
H         93.98614       30.36122       48.41418
N         90.85174       31.42469       44.88071
C         90.34381       31.70450       43.54906
C         89.40654       30.58179       43.15330
O         88.28242       30.86521       42.76583
C         91.55383       31.86700       42.59405
C         92.41779       33.04020       43.08762
C         93.71392       33.26301       42.38182
O         94.42821       34.15714       42.79728
O         94.15279       32.51534       41.35250
H         91.56688       30.69721       44.92434
H         89.75962       32.65280       43.52693
H         91.21428       32.05816       41.55312
H         92.15466       30.93274       42.59840
H         92.70015       32.87208       44.14773
H         91.82227       33.97677       43.02663
N         89.76900       29.27848       43.31907
C         88.88884       28.15528       43.08722
H         87.89980       28.46646       42.69480
H         89.36542       27.45865       42.36834
H         88.73107       27.62074       44.04980
H         90.69628       29.05517       43.68472
Ca        96.17877       33.29016       40.72237
O         94.29277       32.39885       38.32595
H         93.82648       32.57559       37.47162
H         93.78165       31.66039       38.73917
O         96.91619       33.25489       37.52349
H         96.38038       33.24077       36.69169
H         97.40693       34.11345       37.48520

Ca 1.0



