%chk=holoCaM-CaMKII.loop4.water1.frame336.chk
%nprocshared=20
%mem=10GB
%nosave
#b3lyp/svp scf=(tight,noincore,xqc) Test 
#IOP(5/87=12) Density=Current Pop=(MK,readradii) iop(6/33=2) iop(6/42=6)

holoCaM-CaMKII.loop4.water1.frame336 

   -3  1 
C         24.46849       51.89695       46.51493
C         23.94660       50.48939       46.56555
O         24.72134       49.58605       46.82570
H         25.25335       51.97245       45.73296
H         23.66360       52.62268       46.27164
H         24.90506       52.17031       47.49798
N         22.63107       50.23092       46.33727
C         22.04415       48.89033       46.34474
C         22.62868       48.04285       45.21617
O         22.50806       48.42783       44.06206
C         20.50857       49.04530       46.29329
C         19.67329       47.79526       46.20370
O         18.79492       47.75793       45.35902
O         19.80472       46.74124       47.03975
H         22.01333       51.03957       46.16230
H         22.26287       48.41178       47.31043
H         20.23230       49.69901       45.43506
H         20.20829       49.57782       47.22301
N         23.28468       46.87044       45.49493
C         23.92453       46.01226       44.49371
C         23.13911       44.71158       44.28885
O         23.41067       44.03354       43.30786
C         25.41262       45.72778       44.92447
C         26.20262       47.05401       45.05559
C         26.14758       44.75882       43.97374
C         27.61017       46.89954       45.64295
H         23.35345       46.56747       46.47387
H         23.91194       46.52865       43.50871
H         25.38393       45.24441       45.92788
H         25.65965       47.71076       45.75101
H         26.26646       47.56218       44.06925
H         25.66281       43.76423       43.95573
H         26.19324       45.17475       42.94579
H         27.17519       44.54736       44.32733
H         28.27727       46.31842       44.97646
H         28.06755       47.90355       45.76935
H         27.56174       46.40868       46.63832
N         22.14950       44.29852       45.13602
C         21.39585       43.05917       44.94019
C         19.90655       43.31732       44.72648
O         19.15907       42.35534       44.61497
C         21.69016       42.05829       46.08410
C         21.25688       42.45244       47.46918
O         20.67705       43.50145       47.68309
O         21.50773       41.61613       48.49402
H         21.92137       44.86504       45.95999
H         21.73807       42.53755       44.02003
H         22.78762       41.87948       46.10718
H         21.19861       41.09060       45.84402
N         19.41218       44.58090       44.56628
C         18.02743       44.85559       44.21159
C         17.02119       44.67245       45.33137
O         15.85111       44.92368       45.07844
H         20.05451       45.38525       44.58128
H         17.74517       44.23897       43.33162
H         17.95153       45.91686       43.89553
N         17.37037       44.27433       46.58987
C         16.39360       44.13974       47.67377
C         15.80573       45.47770       48.14155
O         14.95048       45.45984       49.01598
C         17.00733       43.37104       48.86777
C         18.16423       44.04888       49.55307
O         18.75447       43.43648       50.59595
O         18.57689       45.13658       49.18384
H         18.35017       44.03052       46.77921
H         15.55846       43.50477       47.30230
H         17.35453       42.37983       48.50372
H         16.21491       43.19252       49.62672
N         16.19856       46.67039       47.60918
C         15.65839       47.95372       48.01836
C         16.11311       48.34146       49.40045
O         15.28317       48.67379       50.23366
H         16.90072       46.69573       46.86150
H         14.55068       47.96108       47.92374
H         16.05975       48.73388       47.33478
N         17.44699       48.38079       49.67448
C         18.03201       48.90493       50.91069
C         19.55044       48.95793       50.82561
O         20.13969       48.40380       49.90561
C         17.53559       48.16409       52.18896
C         17.64415       46.62563       52.21396
C         19.03673       46.06595       52.39617
N         19.33586       45.31906       53.48596
O         19.89239       46.24702       51.54677
H         18.07369       48.08054       48.91354
H         17.70798       49.96631       50.99683
H         16.45500       48.38640       52.29166
H         18.00974       48.58888       53.10058
H         17.17597       46.20091       51.30221
H         17.03103       46.28455       53.07685
H         18.63277       45.13205       54.21559
H         20.27481       44.91165       53.59785
N         20.25264       49.66824       51.74759
C         21.70485       49.76515       51.74351
C         22.19290       49.25759       53.08357
O         21.84411       49.83976       54.10248
C         22.13685       51.22553       51.42376
C         23.66078       51.41226       51.48751
C         21.65720       51.61839       50.01162
H         19.73524       50.18064       52.48007
H         22.13933       49.12321       50.95057
H         21.67553       51.91525       52.16425
H         24.16275       50.76866       50.73897
H         23.92546       52.46869       51.26395
H         24.04933       51.17494       52.49921
H         20.55294       51.54740       49.92958
H         21.94773       52.66392       49.77491
H         22.10904       50.94866       49.24580
N         23.00424       48.16266       53.15278
C         23.49253       47.61360       54.41314
C         24.88652       48.13678       54.69684
O         25.36953       48.97843       53.95364
C         23.38373       46.05971       54.46638
C         24.42748       45.26652       53.70387
N         24.46091       45.22662       52.35554
O         25.23720       44.60207       54.33376
H         23.33353       47.74931       52.27260
H         22.84677       47.97575       55.24343
H         22.36818       45.73149       54.16929
H         23.49646       45.76975       55.53326
H         23.76442       45.72100       51.78917
H         25.17397       44.65801       51.87296
N         25.58721       47.69832       55.77691
C         26.93493       48.15270       56.09782
C         27.90669       47.87272       54.95971
O         28.64667       48.76973       54.58622
C         27.43464       47.45019       57.37651
C         28.81910       47.92222       57.75003
C         29.04218       49.26176       58.11278
C         29.90209       47.02940       57.71715
C         30.32941       49.70037       58.43332
C         31.18889       47.47115       58.03460
C         31.40684       48.80947       58.39331
O         32.64384       49.24949       58.69831
H         25.14712       47.00222       56.39638
H         26.90651       49.24819       56.29231
H         27.43464       46.35177       57.19861
H         26.74258       47.65359       58.22250
H         28.22129       49.96735       58.14543
H         29.75355       45.99473       57.43333
H         30.48931       50.73514       58.70918
H         32.01526       46.77310       57.99710
H         33.41594       48.66640       58.67761
N         27.98257       46.63865       54.38743
C         28.94380       46.29551       53.33695
C         28.75210       47.07250       52.02854
O         29.58168       46.89773       51.14635
C         28.90592       44.77794       53.04160
C         29.32775       43.93787       54.26065
C         29.31381       42.47169       53.93799
O         28.52066       41.63551       54.63462
O         30.03020       42.02759       53.05467
H         27.35190       45.90990       54.74694
H         29.96290       46.53922       53.71225
H         29.61988       44.55236       52.21856
H         27.88466       44.48762       52.70752
H         28.64404       44.11903       55.11551
H         30.35590       44.22393       54.57213
N         27.72963       47.95591       51.82677
C         27.57305       48.74671       50.60592
C         27.75354       50.24053       50.86018
O         27.80599       50.98645       49.89103
C         26.16068       48.56451       50.04298
C         25.75439       47.12175       49.73442
C         24.29991       47.07483       49.34011
O         23.66656       45.90560       49.16316
O         23.65915       48.10490       49.21266
H         27.03132       48.08396       52.56094
H         28.32878       48.44407       49.84911
H         26.04128       49.17817       49.12254
H         25.45939       48.94030       50.82026
H         25.89301       46.51330       50.64483
H         26.38280       46.69658       48.92308
N         27.81009       50.76675       52.11542
C         27.95248       52.18452       52.35531
H         28.91471       52.54345       51.93490
H         27.10735       52.73526       51.89025
H         27.94379       52.38277       53.44896
H         27.71943       50.16526       52.93701
Ca        21.64734       46.11606       48.18370
O         22.07887       43.75246       50.92732
H         22.97241       43.33778       50.82671
H         21.44859       42.99123       50.88415

Ca 1.0



