%chk=holoCaM.loop3.water1.frame141.chk
%nprocshared=20
%mem=10GB
%nosave
#b3lyp/svp scf=(tight,noincore,xqc) Test 
#IOP(5/87=12) Density=Current Pop=(MK,readradii) iop(6/33=2) iop(6/42=6)

holoCaM.loop3.water1.frame141 

   0  1 
C         31.39458       87.29971       -0.96317
C         30.78687       86.53443        0.17226
O         31.45199       85.69198        0.75864
H         32.44261       86.97930       -1.14033
H         30.80072       87.13783       -1.88621
H         31.39170       88.38302       -0.71432
N         29.51507       86.81282        0.56229
C         28.88904       86.18524        1.71455
C         28.69832       84.66746        1.49081
O         28.07527       84.26788        0.51789
C         27.59258       86.95118        2.07444
C         27.06958       86.42260        3.35692
O         26.75760       85.26391        3.39062
O         26.98986       87.11069        4.50352
H         29.00205       87.55198        0.05532
H         29.56737       86.33942        2.58139
H         26.82707       86.83867        1.27522
H         27.81162       88.03032        2.20650
N         29.26723       83.77903        2.36403
C         29.34308       82.31810        2.18110
C         28.01668       81.55140        2.32223
O         27.98812       80.37909        1.97408
C         30.34213       81.71853        3.21131
C         31.76896       82.32217        3.16328
C         32.52684       82.09019        1.84927
C         32.87066       80.61124        1.62655
N         33.61024       80.43307        0.37919
H         29.76243       84.19150        3.16334
H         29.72586       82.13096        1.15579
H         30.40744       80.61771        3.08875
H         29.93299       81.90523        4.22927
H         32.36706       81.90215        4.00078
H         31.72782       83.41375        3.33200
H         33.48066       82.65950        1.90246
H         31.94715       82.49426        0.99354
H         31.94783       79.99625        1.58396
H         33.49388       80.25430        2.47751
H         33.01241       80.71819       -0.43032
H         34.48608       81.00461        0.39150
H         33.86415       79.42431        0.27536
N         26.91015       82.11771        2.87068
C         25.61268       81.46261        3.05772
C         24.55486       82.21296        2.25181
O         23.92131       81.60992        1.39692
C         25.24349       81.33679        4.56620
C         25.24594       82.62807        5.34711
O         26.39922       83.29980        5.52755
O         24.20904       83.06608        5.81663
H         27.00407       83.07310        3.18837
H         25.64151       80.41888        2.67068
H         25.96130       80.64929        5.06197
H         24.23478       80.87075        4.62764
N         24.37913       83.55311        2.42152
C         23.54296       84.39420        1.58466
C         22.76160       85.44295        2.35719
O         22.07627       86.21589        1.70150
H         24.96118       84.02156        3.10616
H         22.85199       83.78431        0.96245
H         24.21283       84.95333        0.89623
N         22.78151       85.54685        3.72379
C         21.93129       86.50681        4.42583
C         22.39593       87.95590        4.28923
O         21.60245       88.83684        4.58810
C         21.69588       86.09892        5.89995
C         22.85302       86.35603        6.83150
N         22.68160       87.08489        7.96024
O         23.94500       85.88073        6.58564
H         23.31418       84.86588        4.27677
H         20.92951       86.41649        3.94957
H         21.45205       85.01421        5.92319
H         20.80917       86.64577        6.28320
H         21.75926       87.47189        8.20713
H         23.46741       87.24131        8.60814
N         23.66230       88.28418        3.88433
C         24.10641       89.66066        3.68685
C         25.11835       90.13870        4.71187
O         25.54896       91.27718        4.58468
H         24.34840       87.53808        3.70254
H         23.25128       90.36847        3.74465
H         24.53377       89.74847        2.66471
N         25.49724       89.38056        5.78399
C         26.35447       89.88077        6.85720
C         27.60247       89.03808        6.97563
O         27.50277       87.83538        7.16600
C         25.58990       89.90572        8.19342
C         24.50624       90.96079        8.16825
C         23.36166       90.82203        7.36168
C         24.65709       92.12375        8.94229
C         22.40332       91.83816        7.31324
C         23.69894       93.13770        8.89188
C         22.57117       93.00131        8.07132
O         21.64762       93.98056        8.00180
H         25.11963       88.42745        5.88825
H         26.67448       90.92822        6.65835
H         26.32800       90.17126        8.98268
H         25.17521       88.90906        8.45353
H         23.20715       89.93460        6.76395
H         25.52867       92.25785        9.57100
H         21.53333       91.72387        6.67878
H         23.84097       94.03250        9.48421
H         21.73727       94.80603        8.49928
N         28.82796       89.62600        6.88502
C         30.08352       88.89167        6.86728
C         30.88911       89.25140        8.10644
O         31.17826       90.42255        8.31452
C         30.85086       89.23985        5.55308
C         29.96013       88.93858        4.31766
C         32.18029       88.47223        5.46523
C         30.60306       89.31176        2.98038
H         28.88286       90.65237        6.78709
H         29.89551       87.79381        6.86892
H         31.08226       90.32821        5.56281
H         29.02003       89.52574        4.39066
H         29.69065       87.86201        4.30888
H         32.77723       88.79653        4.59020
H         32.80757       88.65928        6.35958
H         31.98436       87.38990        5.36257
H         30.88268       90.38575        2.97530
H         31.49547       88.68865        2.77093
H         29.88061       89.13713        2.15845
N         31.32135       88.27139        8.95082
C         32.16956       88.50734       10.11823
C         33.56043       87.96722        9.83581
O         33.78808       87.50303        8.73404
C         31.53589       87.85755       11.36264
O         31.45190       86.46270       11.22087
H         31.09831       87.29073        8.71638
H         32.27761       89.59552       10.31981
H         30.53098       88.30069       11.55587
H         32.13973       88.07752       12.26768
H         30.54172       86.25692       10.88301
N         34.55603       87.99657       10.76255
C         35.90730       87.51013       10.47849
C         35.91136       86.07455        9.98041
O         36.62742       85.78785        9.03126
C         36.79703       87.62224       11.71649
H         34.35053       88.37752       11.69898
H         36.36572       88.15139        9.69117
H         37.82826       87.28643       11.46986
H         36.84850       88.68010       12.05033
H         36.40160       86.99527       12.54310
N         35.10030       85.13329       10.54173
C         35.06288       83.74054       10.10144
C         34.83504       83.63134        8.60221
O         35.66496       83.04896        7.91746
C         33.96433       82.98072       10.86090
H         34.47121       85.42821       11.30460
H         36.03926       83.26510       10.34287
H         32.96494       83.42783       10.66638
H         33.94239       81.91462       10.55080
H         34.15560       83.02580       11.95410
N         33.73270       84.17758        8.02525
C         33.45777       84.10954        6.59146
C         34.51876       84.85507        5.79384
O         35.18662       84.24375        4.97163
C         32.06528       84.70031        6.30667
C         30.94764       83.82695        6.89016
C         29.61705       84.48202        6.69254
O         29.22063       84.74139        5.56908
O         28.85746       84.79532        7.75936
H         33.06028       84.65896        8.64209
H         33.45249       83.04581        6.26145
H         31.90713       84.78781        5.21035
H         32.00491       85.71076        6.76083
H         31.10182       83.67095        7.97819
H         30.95145       82.83421        6.39079
N         34.71941       86.18523        5.98144
C         35.70322       86.95464        5.25424
H         36.71876       86.54263        5.43012
H         35.46886       86.94140        4.16960
H         35.68515       88.00994        5.60594
H         34.14370       86.67656        6.66375
Ca        26.52222       85.50576        6.02858
O         25.80213       84.98103        8.89809
H         25.84687       85.74349        9.52798
H         25.05279       84.42526        9.22930

Ca 1.0



