%chk=holoCaM.loop4.water3.frame78.chk
%nprocshared=20
%mem=10GB
%nosave
#b3lyp/svp scf=(tight,noincore,xqc) Test 
#IOP(5/87=12) Density=Current Pop=(MK,readradii) iop(6/33=2) iop(6/42=6)

holoCaM.loop4.water3.frame78 

   -3  1 
C        109.67524        6.89510      122.75572
C        109.35018        8.25619      123.29624
O        108.20397        8.48726      123.65009
H        110.43033        6.41596      123.41698
H        108.77041        6.24794      122.75023
H        110.07955        6.96925      121.72763
N        110.33832        9.18434      123.46140
C        110.14050       10.41578      124.21671
C        110.81940       11.63477      123.59336
O        112.01844       11.58612      123.35686
C        110.73035       10.17331      125.61312
C        110.52845       11.35770      126.49640
O        109.40307       11.78866      126.68740
O        111.59156       11.96105      127.05999
H        111.30193        8.91807      123.20632
H        109.05610       10.62206      124.35240
H        111.81477        9.94020      125.54125
H        110.22887        9.29859      126.07519
N        110.12252       12.80072      123.41066
C        110.73659       14.06840      122.99316
C        110.57122       15.19108      124.04146
O        111.09650       16.27007      123.80473
C        110.14997       14.54271      121.62188
C        108.65896       14.97809      121.73486
C        110.35920       13.45575      120.55192
C        108.06764       15.53912      120.43980
H        109.11656       12.79513      123.61065
H        111.82987       13.91932      122.85696
H        110.73043       15.43714      121.30228
H        108.57040       15.78328      122.49395
H        108.03053       14.13663      122.06806
H        109.77513       12.54267      120.79107
H        110.05698       13.81710      119.54844
H        111.43413       13.18500      120.48999
H        108.66283       16.40816      120.08814
H        108.02636       14.76757      119.64503
H        107.02604       15.87758      120.62816
N        109.79384       15.04597      125.16026
C        109.41767       16.15994      126.05140
C        109.56118       15.87104      127.56231
O        109.32017       16.78077      128.34397
C        107.96967       16.62310      125.73311
C        106.92211       15.55400      125.88951
O        107.28986       14.28604      126.12863
O        105.74013       15.83204      125.77076
H        109.35769       14.13520      125.30785
H        110.06677       17.03782      125.84110
H        107.91738       16.99959      124.68890
H        107.71643       17.47131      126.40648
N        109.97409       14.66813      128.05078
C        110.25344       14.39651      129.46256
C        109.07204       14.30719      130.43198
O        109.33709       14.09800      131.60758
H        110.21569       13.93846      127.38091
H        110.96577       15.16574      129.83081
H        110.76932       13.41340      129.52541
N        107.76769       14.43683      130.05590
C        106.63160       14.37026      131.00083
C        106.35507       12.97945      131.61868
O        105.37723       12.86454      132.34484
C        105.35481       14.92712      130.31835
C        104.94291       14.16739      129.09685
O        105.57759       13.03355      128.77152
O        104.09546       14.62666      128.35066
H        107.57874       14.65339      129.06682
H        106.83165       15.07269      131.83994
H        105.58784       15.96616      129.99760
H        104.50121       14.97602      131.02836
N        107.16378       11.89675      131.41924
C        106.93731       10.58196      132.02386
C        105.85171        9.73738      131.36098
O        105.65754        8.61092      131.80003
H        108.03013       12.01565      130.88892
H        106.73953       10.69982      133.11192
H        107.87462        9.99321      131.92390
N        105.11982       10.18898      130.30601
C        104.09194        9.42675      129.59496
C        104.36567        9.40890      128.08615
O        105.33773       10.01412      127.65375
C        102.70139       10.02150      129.91948
C        102.56359       11.51321      129.55920
C        101.21284       12.08885      129.90311
N        100.96946       13.39994      129.67643
O        100.33877       11.38912      130.39418
H        105.29151       11.14095      129.98971
H        104.08107        8.37070      129.94699
H        102.52870        9.90946      131.01311
H        101.91600        9.43765      129.39416
H        102.74554       11.65350      128.47268
H        103.30919       12.09838      130.13296
H        101.69663       14.00609      129.27072
H        100.05580       13.81328      129.91286
N        103.55371        8.72759      127.22364
C        103.75411        8.65485      125.77077
C        102.53153        9.21347      125.04863
O        101.43459        8.72856      125.30278
C        103.99419        7.17603      125.33909
C        104.13145        7.04309      123.80888
C        105.25787        6.59801      125.99273
H        102.75102        8.20885      127.61619
H        104.64818        9.23919      125.46305
H        103.12578        6.56035      125.66355
H        104.29898        5.98137      123.52758
H        103.20633        7.37532      123.29363
H        104.98417        7.65058      123.43511
H        105.38355        5.53121      125.70846
H        106.15437        7.14763      125.64565
H        105.19953        6.65215      127.09939
N        102.65159       10.18703      124.09124
C        101.51761       10.69707      123.31013
C        101.67179       10.37555      121.82695
O        102.63860        9.72627      121.45457
C        101.26758       12.20644      123.56517
C        102.10375       13.18885      122.76659
N        103.45026       13.23441      122.84687
O        101.52949       13.97778      122.02951
H        103.59393       10.54257      123.88216
H        100.59054       10.18869      123.65401
H        101.33704       12.40673      124.65185
H        100.21007       12.41309      123.28875
H        103.96980       12.60084      123.45863
H        103.98035       13.92003      122.28835
N        100.71591       10.75737      120.93183
C        100.73223       10.39572      119.51043
C        101.72490       11.18360      118.65092
O        101.93148       10.77584      117.51629
C         99.30002       10.44879      118.93098
C         98.65917       11.81673      119.00282
C         98.92343       12.79191      118.02736
C         97.77227       12.12033      120.05143
C         98.30830       14.04734      118.10191
C         97.17656       13.37912      120.13540
C         97.43632       14.34546      119.16066
O         96.84030       15.55129      119.25063
H         99.88747       11.22903      121.31636
H        101.03350        9.32471      119.45357
H         98.69430        9.74028      119.53823
H         99.25947       10.06492      117.88803
H         99.59029       12.57640      117.20210
H         97.55400       11.38611      120.81738
H         98.50865       14.78687      117.33717
H         96.50943       13.60049      120.95910
H         96.98208       16.24685      118.59337
N        102.39150       12.29014      119.10097
C        103.48093       12.91917      118.34395
C        104.79785       12.16879      118.58109
O        105.79959       12.49500      117.96162
C        103.56179       14.42498      118.70353
C        104.61353       15.20880      117.89020
C        104.57700       16.69101      118.14989
O        103.68892       17.23036      119.00808
O        105.36487       17.42015      117.56860
H        102.21256       12.62093      120.05566
H        103.24447       12.86399      117.25764
H        103.77167       14.54788      119.78846
H        102.56300       14.86514      118.48633
H        104.43719       15.04458      116.80514
H        105.63301       14.86063      118.15025
N        104.84928       11.11415      119.44018
C        106.02219       10.30786      119.72809
C        105.81928        8.88670      119.21942
O        106.69128        8.05820      119.44332
C        106.23206       10.30044      121.25635
C        106.49382       11.71329      121.78942
C        106.52404       11.77408      123.28847
O        106.33344       10.67398      124.03866
O        106.67311       12.85123      123.83736
H        104.00247       10.83277      119.93497
H        106.93096       10.71494      119.23253
H        107.09057        9.65071      121.52916
H        105.31579        9.88961      121.73669
H        105.68873       12.39838      121.45596
H        107.45734       12.07243      121.37637
N        104.70983        8.52773      118.50657
C        104.50802        7.18524      118.01373
H        103.55447        7.13493      117.44448
H        105.34030        6.90100      117.33634
H        104.45219        6.47544      118.86507
H        103.97839        9.21528      118.28294
Ca       105.97324       12.59735      126.66161
O        108.17189       10.75333      128.84669
H        109.10413       10.97406      129.09821
H        108.00960        9.86892      129.25799
O        107.82701        9.11502      126.69772
H        107.21328        9.18134      125.92723
H        107.84354        8.15572      126.93749
O        103.39831       13.08765      125.89795
H        102.66850       13.44061      126.46274
H        103.85749       13.89301      125.54959

Ca 1.0



