%chk=holoCaM-CaMKII.loop4.water1.frame438.chk
%nprocshared=20
%mem=10GB
%nosave
#b3lyp/svp scf=(tight,noincore,xqc) Test 
#IOP(5/87=12) Density=Current Pop=(MK,readradii) iop(6/33=2) iop(6/42=6)

holoCaM-CaMKII.loop4.water1.frame438 

   -3  1 
C         60.61856       85.79474       27.15452
C         60.02499       86.48984       28.33466
O         58.81948       86.42501       28.52647
H         61.36576       85.05188       27.50341
H         59.83008       85.27317       26.57235
H         61.11590       86.54424       26.50464
N         60.82927       87.17634       29.18833
C         60.30731       87.86429       30.35346
C         59.38806       89.00186       29.91690
O         59.82203       89.85937       29.16038
C         61.46140       88.38046       31.23864
C         60.94565       88.88278       32.55321
O         61.71776       89.31551       33.38453
O         59.62787       88.80860       32.81134
H         61.84629       87.18418       29.01222
H         59.75295       87.11765       30.96265
H         62.03250       89.17584       30.71359
H         62.15111       87.53728       31.46638
N         58.10692       89.07366       30.37952
C         57.14546       90.09159       29.96991
C         57.02742       91.15669       31.04977
O         57.19108       92.32777       30.73594
C         55.76081       89.43629       29.66724
C         55.84445       88.25823       28.66061
C         54.73445       90.48395       29.19252
C         56.37706       88.61674       27.27234
H         57.79678       88.37754       31.07067
H         57.49261       90.60055       29.04321
H         55.36853       89.00007       30.61358
H         54.83026       87.81582       28.54311
H         56.49590       87.46711       29.08240
H         54.58028       91.26485       29.96591
H         55.07164       90.98454       28.26140
H         53.75067       90.00254       29.00548
H         55.72826       89.36447       26.77353
H         57.41449       89.00286       27.33491
H         56.38884       87.70146       26.64311
N         56.74849       90.82708       32.34336
C         56.55872       91.81935       33.40098
C         57.85321       92.28892       34.07457
O         57.76440       93.10311       34.98316
C         55.39486       91.42071       34.34471
C         55.43416       90.03976       34.94737
O         54.50101       89.27358       34.75836
O         56.46427       89.64676       35.71532
H         56.66009       89.82992       32.58473
H         56.18950       92.76492       32.94529
H         54.45387       91.49147       33.75409
H         55.32229       92.16467       35.16545
N         59.08657       91.94662       33.59934
C         60.32248       92.58212       34.04174
C         60.64532       92.36864       35.50007
O         60.80193       93.34835       36.21578
H         59.16338       91.29012       32.81225
H         60.25895       93.67412       33.83424
H         61.16896       92.18212       33.44258
N         60.79277       91.11279       36.00207
C         61.17868       90.83656       37.38530
C         62.46147       90.00369       37.49249
O         62.91407       89.79002       38.60778
C         59.99153       90.19804       38.14548
C         59.47425       88.89091       37.60748
O         58.41930       88.30366       38.20176
O         59.97841       88.35933       36.63695
H         60.61001       90.32615       35.36846
H         61.39951       91.79109       37.91067
H         59.14651       90.91900       38.11916
H         60.27942       90.04367       39.20675
N         63.09874       89.49930       36.39427
C         64.32353       88.71396       36.43961
C         64.08729       87.25880       36.08866
O         65.06234       86.52225       36.01058
H         62.70648       89.65313       35.46499
H         64.78573       88.73280       37.44908
H         65.04885       89.16368       35.72768
N         62.82896       86.74884       35.95323
C         62.54381       85.33147       35.78904
C         61.54895       85.07180       34.67746
O         60.96238       86.00116       34.13405
C         62.11092       84.73288       37.16086
C         61.01079       85.47897       37.95762
C         59.58942       85.29875       37.47363
N         58.63753       84.83404       38.31947
O         59.27564       85.61186       36.33734
H         62.02719       87.37189       36.07812
H         63.47252       84.79496       35.49111
H         63.01971       84.80839       37.79777
H         61.86627       83.65199       37.07992
H         61.25605       86.55701       38.01661
H         61.05837       85.10708       39.00365
H         58.86325       84.59749       39.29716
H         57.66021       84.73616       38.00769
N         61.34559       83.79225       34.26945
C         60.39067       83.38044       33.25211
C         59.49559       82.33345       33.88715
O         60.02373       81.32268       34.33672
C         61.15342       82.82880       32.01024
C         60.20085       82.26445       30.94131
C         62.01345       83.93440       31.36944
H         61.91701       83.04995       34.70625
H         59.77725       84.23651       32.91002
H         61.82692       82.00449       32.33486
H         60.78608       81.87192       30.08073
H         59.60540       81.42087       31.34729
H         59.50963       83.05002       30.56919
H         62.58207       83.53102       30.50397
H         61.37311       84.76961       31.00962
H         62.74860       84.33950       32.09519
N         58.13888       82.48418       33.94817
C         57.26933       81.45670       34.52208
C         56.62765       80.65189       33.41344
O         56.88451       80.94370       32.26000
C         56.25236       82.02141       35.55039
C         55.04586       82.74416       34.98810
N         55.14094       83.95884       34.40735
O         53.94355       82.22825       35.10534
H         57.71489       83.30518       33.49489
H         57.89042       80.73315       35.09295
H         56.76803       82.66000       36.29935
H         55.85605       81.14491       36.10728
H         56.04070       84.44745       34.33592
H         54.29131       84.43067       34.06113
N         55.81742       79.59398       33.67968
C         55.23363       78.74360       32.64274
C         54.38556       79.54102       31.66462
O         54.56139       79.38180       30.46544
C         54.38834       77.63296       33.29602
C         53.77139       76.70893       32.27178
C         54.57961       75.95499       31.40199
C         52.37478       76.59966       32.17641
C         53.99747       75.11163       30.45106
C         51.79551       75.75467       31.22683
C         52.60560       75.00800       30.35960
O         52.05876       74.19034       29.43788
H         55.62218       79.37008       34.66769
H         56.05798       78.25519       32.07647
H         53.59448       78.10763       33.91426
H         55.03189       77.03225       33.97503
H         55.65899       76.01969       31.45598
H         51.73243       77.17106       32.83479
H         54.62949       74.53840       29.78428
H         50.71716       75.68306       31.16600
H         51.10063       74.09057       29.34388
N         53.46374       80.43433       32.11578
C         52.61358       81.24554       31.24475
C         53.44901       81.97161       30.19982
O         53.16798       81.85327       29.01532
C         51.81703       82.24315       32.11759
C         50.75693       83.02758       31.33507
C         50.00425       83.94851       32.25434
O         48.67972       83.78677       32.43725
O         50.58860       84.84570       32.84146
H         53.38951       80.56248       33.13581
H         51.89120       80.57647       30.72625
H         52.52222       82.94822       32.61221
H         51.28851       81.67035       32.91185
H         50.04403       82.30827       30.87617
H         51.22597       83.62875       30.52773
N         54.53065       82.69826       30.58285
C         55.42966       83.39188       29.66134
C         56.03641       82.42387       28.64784
O         55.93785       82.69168       27.45870
C         56.49630       84.16499       30.47413
C         55.80737       85.30914       31.25802
C         56.71418       86.09555       32.15709
O         56.25400       87.01863       32.81017
O         58.01730       85.79303       32.27325
H         54.73794       82.72885       31.59307
H         54.86113       84.15314       29.08144
H         57.24934       84.61387       29.79188
H         57.02276       83.46699       31.16138
H         54.99538       84.90815       31.89079
H         55.34459       86.00744       30.53129
N         56.61725       81.25550       29.03523
C         57.14041       80.26077       28.11926
H         58.20285       80.05310       28.36407
H         56.56198       79.31822       28.23568
H         57.07364       80.58039       27.05907
H         56.65217       81.02546       30.02619
Ca        58.33987       89.19820       34.59107
O         55.92268       86.51416       36.26110
H         55.57911       86.11469       37.09927
H         55.11018       86.70893       35.72985

Ca 1.0



