%chk=holoCaM-CaMKII.loop1.water2.frame332.chk
%nprocshared=20
%mem=10GB
%nosave
#b3lyp/svp scf=(tight,noincore,xqc) Test 
#IOP(5/87=12) Density=Current Pop=(MK,readradii) iop(6/33=2) iop(6/42=6)

holoCaM-CaMKII.loop1.water2.frame332 

   0  1 
C         24.35917       64.98434       54.70680
C         24.62943       66.03042       53.66233
O         24.29099       67.17939       53.88892
H         23.26633       64.90784       54.88481
H         24.73489       63.98711       54.39388
H         24.86401       65.26556       55.65520
N         25.25956       65.69877       52.50030
C         25.62701       66.64141       51.44055
C         24.45159       66.90091       50.49248
O         24.54104       66.57983       49.31630
C         26.89761       66.07625       50.74671
C         27.44848       66.83728       49.56663
O         27.83245       68.12368       49.64906
O         27.60734       66.25010       48.50863
H         25.57003       64.71938       52.40217
H         25.92057       67.60522       51.88973
H         26.68516       65.03938       50.40408
H         27.70280       66.01914       51.51257
N         23.30576       67.49223       50.94608
C         22.14156       67.76992       50.10740
C         22.33969       68.91282       49.11899
O         21.42738       69.10884       48.32661
C         20.90569       68.08929       50.99123
C         20.33240       66.86341       51.73080
C         19.66713       65.87751       50.74856
C         18.94855       64.73022       51.46446
N         18.28355       63.85917       50.49296
H         23.23363       67.72967       51.93920
H         21.92548       66.87281       49.49584
H         20.07427       68.49854       50.37624
H         21.18496       68.88198       51.72066
H         19.54243       67.23437       52.42007
H         21.11481       66.36049       52.33984
H         20.41731       65.43834       50.06125
H         18.91393       66.43215       50.14617
H         18.18610       65.14565       52.16015
H         19.68285       64.13839       52.05389
H         17.79364       63.08657       50.99826
H         17.57649       64.40396       49.94637
H         18.98588       63.44510       49.83748
N         23.46139       69.69389       49.06444
C         23.62656       70.73870       48.04716
C         24.68002       70.36197       47.00908
O         24.84746       71.10421       46.05166
C         23.83355       72.12792       48.69071
C         25.10361       72.32402       49.46958
O         25.94284       71.44451       49.55247
O         25.32432       73.50897       50.06982
H         24.23008       69.52741       49.72958
H         22.69037       70.83890       47.45682
H         22.97423       72.32396       49.36906
H         23.81315       72.89865       47.88985
N         25.35662       69.17923       47.07908
C         26.19978       68.66385       46.01603
C         27.42885       69.49249       45.75396
O         27.64909       69.89061       44.61949
H         25.21607       68.55448       47.88231
H         25.59691       68.55383       45.08876
H         26.54705       67.64857       46.30891
N         28.30819       69.73327       46.76032
C         29.60739       70.36931       46.58461
C         30.74240       69.41959       46.98776
O         31.88982       69.84275       46.98912
C         29.63992       71.72547       47.32428
C         29.47118       71.69671       48.81893
O         29.45281       72.86172       49.49204
O         29.34923       70.65109       49.43200
H         28.05412       69.41246       47.69958
H         29.77725       70.61869       45.51400
H         28.82338       72.35415       46.90635
H         30.60337       72.23159       47.09950
N         30.50437       68.09920       47.26261
C         31.54549       67.12047       47.54248
C         32.11966       67.17789       48.94176
O         32.93752       66.31869       49.24558
H         29.55123       67.72293       47.17298
H         32.34815       67.19008       46.77663
H         31.09125       66.10918       47.45414
N         31.74770       68.11667       49.85656
C         32.23625       68.13181       51.23262
C         31.08601       68.10162       52.23080
O         29.92627       68.20994       51.85126
C         33.14252       69.37378       51.46842
C         34.49395       69.19489       50.77536
O         32.55059       70.55410       50.98635
H         31.08833       68.85422       49.57832
H         32.83593       67.21903       51.44818
H         33.36651       69.49017       52.55171
H         31.59449       70.54038       51.24077
H         35.01161       68.29793       51.18002
H         34.36981       69.07972       49.67876
H         35.13687       70.07928       50.97335
N         31.36644       67.90971       53.54838
C         30.38631       67.84689       54.62681
C         30.75985       68.88978       55.66306
O         31.90323       68.90150       56.10452
C         30.36491       66.40735       55.22490
C         29.78980       65.43063       54.16122
C         29.53318       66.35114       56.52529
C         29.81538       63.95812       54.57194
H         32.35543       67.76472       53.81147
H         29.36023       68.06367       54.26002
H         31.40733       66.11110       55.48006
H         30.38328       65.51153       53.22619
H         28.73930       65.71505       53.92649
H         28.47866       66.64297       56.33582
H         29.55895       65.33857       56.97432
H         29.95903       67.02831       57.29497
H         29.40926       63.34282       53.74093
H         30.85738       63.63545       54.77707
H         29.18291       63.76736       55.46154
N         29.82948       69.76974       56.13326
C         30.13619       70.79858       57.12287
C         29.49804       70.48411       58.46350
O         28.72251       69.54367       58.57550
C         29.67486       72.19613       56.62353
C         30.36985       72.61643       55.32755
O         28.27720       72.24411       56.47062
H         28.85768       69.68348       55.79972
H         31.23269       70.83326       57.30538
H         29.94577       72.96146       57.38113
H         28.03666       71.80449       55.61456
H         30.12617       71.89511       54.52182
H         30.01490       73.62559       55.02443
H         31.46940       72.65162       55.47077
N         29.81662       71.25090       59.54352
C         29.21993       71.09731       60.87011
C         27.72912       71.39118       60.81386
O         26.96150       70.74878       61.51479
C         29.90429       72.03396       61.89381
C         31.38210       71.65650       62.08834
O         29.79674       73.36895       61.46726
H         30.51310       71.99861       59.40284
H         29.36806       70.05198       61.22560
H         29.38383       71.91033       62.87167
H         30.09610       73.93961       62.22194
H         31.84341       72.31517       62.85339
H         31.46531       70.60542       62.43800
H         31.96013       71.76401       61.14716
N         27.25847       72.32938       59.94668
C         25.84647       72.60431       59.69309
C         25.15067       71.33008       59.24941
O         24.17440       70.93370       59.87102
C         25.78558       73.74811       58.64206
C         24.42209       74.23738       58.12730
C         23.80907       73.33481       57.04247
C         22.62714       74.03775       56.35531
N         22.10093       73.23271       55.25325
H         27.95549       72.85149       59.39378
H         25.35794       72.96946       60.62389
H         26.40825       73.49966       57.75628
H         26.26706       74.62046       59.13812
H         24.63500       75.20955       57.62831
H         23.71688       74.43266       58.96303
H         23.47808       72.36642       57.46735
H         24.58003       73.14156       56.26433
H         22.96974       75.01503       55.94441
H         21.82127       74.23439       57.09569
H         22.84966       73.06377       54.54178
H         21.74140       72.31936       55.61224
H         21.31806       73.75293       54.79450
N         25.61651       70.62828       58.18375
C         24.97996       69.41454       57.67537
C         25.08651       68.21987       58.61605
O         24.43877       67.21659       58.34602
C         25.64023       69.00966       56.35470
C         25.45188       70.06820       55.25688
C         26.22031       69.70989       54.02590
O         26.89112       68.69035       53.97551
O         26.17805       70.51129       52.95371
H         26.44224       71.00376       57.69850
H         23.90323       69.63068       57.49359
H         25.21106       68.05209       55.99601
H         26.72456       68.84742       56.54752
H         25.80853       71.06137       55.58666
H         24.37194       70.15352       55.00805
N         25.91396       68.21352       59.69470
C         26.04945       67.05678       60.55280
H         25.07357       66.81630       61.02436
H         26.40087       66.18439       59.96025
H         26.79375       67.26301       61.35101
H         26.49413       69.03150       59.89938
Ca        27.22911       69.59198       51.21912
O         30.59246       72.65760       52.11834
H         31.41279       72.40083       52.60953
H         30.53345       73.63740       52.23582
O         27.71262       73.47256       52.61671
H         27.15881       73.00298       51.94438
H         27.74147       74.41118       52.30258

Ca 1.0



