%chk=holoCaM-CaMKII.loop1.water2.frame215.chk
%nprocshared=20
%mem=10GB
%nosave
#b3lyp/svp scf=(tight,noincore,xqc) Test 
#IOP(5/87=12) Density=Current Pop=(MK,readradii) iop(6/33=2) iop(6/42=6)

holoCaM-CaMKII.loop1.water2.frame215 

   0  1 
C         16.61466       59.90619       43.20387
C         16.34932       59.95627       44.68109
O         15.20390       60.13452       45.04297
H         17.69105       59.75056       42.98271
H         16.03348       59.07774       42.74722
H         16.29824       60.86692       42.74442
N         17.36589       59.79145       45.57670
C         17.28015       59.84983       47.04671
C         16.90019       61.25814       47.54595
O         17.74292       61.96321       48.08260
C         18.64309       59.32808       47.60317
C         18.89400       59.54559       49.06825
O         17.93149       59.37902       49.98661
O         19.93384       60.08464       49.41162
H         18.29156       59.59475       45.16503
H         16.51758       59.13729       47.42680
H         19.48433       59.81913       47.06379
H         18.69691       58.24527       47.38976
N         15.62032       61.71930       47.41627
C         15.16607       63.04496       47.82372
C         15.07339       63.17118       49.33628
O         15.69052       64.07802       49.87757
C         13.80600       63.38027       47.16437
C         13.95325       63.51824       45.63292
C         12.64411       63.96567       44.96597
C         12.81342       64.29913       43.46985
N         13.18223       63.13550       42.66163
H         14.91478       61.10542       47.00493
H         15.88114       63.80965       47.44424
H         13.46172       64.36202       47.55756
H         13.04057       62.61384       47.41924
H         14.28722       62.55740       45.19442
H         14.72759       64.28924       45.42632
H         12.29978       64.89713       45.46563
H         11.86075       63.18828       45.09906
H         13.58061       65.09661       43.34850
H         11.84725       64.70190       43.09285
H         13.23284       63.42696       41.65812
H         14.11969       62.76863       42.93944
H         12.45851       62.38703       42.75700
N         14.32281       62.30731       50.08858
C         14.18739       62.41957       51.55115
C         15.52352       62.34708       52.30737
O         15.51904       62.59691       53.50439
C         13.18003       61.36663       52.10477
C         13.60744       59.94382       51.84437
O         14.77981       59.74090       51.22534
O         12.88923       59.00659       52.14975
H         13.80970       61.56075       49.59560
H         13.75849       63.42428       51.76020
H         12.19915       61.52992       51.60772
H         13.03835       61.51356       53.19769
N         16.70327       62.06743       51.68024
C         18.00394       62.15438       52.31750
C         18.24512       61.07177       53.34189
O         17.87096       61.23377       54.49341
H         16.71228       61.83945       50.67848
H         18.16843       63.16334       52.75393
H         18.77407       62.04847       51.52160
N         18.95726       59.96676       52.98151
C         19.35271       58.89027       53.89049
C         20.36320       57.90528       53.26068
O         20.55444       56.83448       53.82083
C         18.10663       58.16808       54.46488
C         17.20227       57.59625       53.41051
O         17.60659       56.74387       52.64056
O         15.92310       58.00733       53.33096
H         19.21966       59.91054       51.99594
H         19.89533       59.33186       54.75471
H         17.51425       58.88241       55.07242
H         18.42662       57.35918       55.15623
N         21.13756       58.23777       52.18071
C         22.18280       57.39049       51.62272
C         21.70631       56.16613       50.86802
O         22.56371       55.50421       50.29424
H         21.08218       59.17341       51.76402
H         22.89821       57.10061       52.42085
H         22.74250       57.99951       50.87786
N         20.39826       55.79084       50.79093
C         19.93609       54.66592       49.98057
C         18.87387       55.12385       48.99655
O         18.36149       56.23130       49.13372
C         19.40365       53.51704       50.87476
C         20.52355       52.84405       51.68408
O         18.37773       53.97046       51.72247
H         19.68952       56.32930       51.30594
H         20.77372       54.26100       49.36971
H         18.97873       52.72039       50.22656
H         18.79449       54.43132       52.49743
H         20.09931       52.01671       52.29288
H         21.28458       52.41728       50.99695
H         21.01897       53.56832       52.36451
N         18.51429       54.32789       47.95065
C         17.49092       54.68718       46.97315
C         16.44566       53.58517       46.96380
O         16.82169       52.42710       46.81247
C         18.07366       54.87645       45.53410
C         19.41299       55.65861       45.53661
C         17.01386       55.59709       44.66615
C         20.00775       55.87169       44.14020
H         19.00364       53.42439       47.83058
H         17.02650       55.65949       47.25756
H         18.29392       53.87772       45.09557
H         20.15726       55.07478       46.12031
H         19.29151       56.64540       46.01634
H         16.05605       55.04183       44.66276
H         16.82260       56.62040       45.06260
H         17.33157       55.68554       43.60919
H         21.00666       56.34767       44.23039
H         20.12195       54.90209       43.61069
H         19.37530       56.55226       43.53382
N         15.11835       53.85846       47.06983
C         14.09008       52.82153       47.03707
C         13.52475       52.68640       45.63857
O         13.93548       53.41981       44.75327
C         12.97391       53.10920       48.07526
C         13.52044       53.20625       49.50473
O         12.24409       54.26238       47.73177
H         14.82682       54.84311       47.07817
H         14.54165       51.83477       47.28477
H         12.25686       52.26221       48.07523
H         12.75240       55.05577       48.03578
H         14.23328       54.05234       49.58615
H         12.68392       53.37841       50.21470
H         14.03921       52.26577       49.78463
N         12.59931       51.73228       45.35442
C         12.02522       51.54219       44.02490
C         11.24188       52.78235       43.61277
O         11.47389       53.31058       42.53577
C         11.11485       50.29010       44.00970
C         10.64283       49.95571       42.59009
O         11.83718       49.19041       44.50505
H         12.30257       51.10261       46.11651
H         12.85201       51.35223       43.30199
H         10.23150       50.48837       44.66297
H         11.18257       48.58505       44.94251
H          9.99666       49.05320       42.61218
H         10.06261       50.79312       42.15119
H         11.51890       49.74312       41.93861
N         10.31846       53.31264       44.46585
C          9.51713       54.50689       44.19558
C         10.39073       55.67717       43.79180
O         10.14848       56.26815       42.74816
C          8.69143       54.85051       45.45821
C          7.79611       56.08748       45.29029
C          6.93189       56.29804       46.54068
C          6.01972       57.52177       46.38983
N          5.15110       57.67123       47.55744
H         10.20353       52.85064       45.38124
H          8.80990       54.29264       43.36359
H          9.37412       55.01725       46.32190
H          8.04729       53.97400       45.69068
H          7.13260       55.94213       44.41064
H          8.42603       56.98868       45.12147
H          7.58410       56.43488       47.43180
H          6.30153       55.39520       46.69613
H          5.38772       57.40395       45.48180
H          6.64130       58.43720       46.27008
H          4.54087       58.50995       47.42600
H          4.54261       56.82636       47.66069
H          5.72476       57.79959       48.42242
N         11.44348       56.04599       44.56505
C         12.33968       57.14992       44.23840
C         12.93010       56.98341       42.84735
O         12.80046       57.89919       42.04673
C         13.43372       57.26811       45.31594
C         12.81905       57.75187       46.64442
C         13.84328       57.94066       47.71628
O         14.51971       57.00292       48.10001
O         13.98802       59.14615       48.29377
H         11.62729       55.48778       45.41219
H         11.77107       58.10773       44.23516
H         14.18262       58.00590       44.98663
H         13.95608       56.29555       45.44027
H         12.05909       57.03495       47.01186
H         12.31333       58.72718       46.47447
N         13.53660       55.82645       42.47158
C         14.04850       55.58407       41.13785
H         15.12243       55.31364       41.19679
H         13.48917       54.73897       40.68212
H         13.94051       56.46715       40.47371
H         13.60169       55.06051       43.14587
Ca        16.01311       58.24678       50.11378
O         12.92504       56.29756       50.85721
H         12.40574       55.72804       51.47868
H         13.68310       56.62860       51.40108
O         15.55802       54.68590       51.82988
H         14.72899       54.41985       52.30023
H         15.84203       53.86720       51.35155

Ca 1.0



