%chk=holoCaM-CaMKII.loop2.water2.frame409.chk
%nprocshared=20
%mem=10GB
%nosave
#b3lyp/svp scf=(tight,noincore,xqc) Test 
#IOP(5/87=12) Density=Current Pop=(MK,readradii) iop(6/33=2) iop(6/42=6)

holoCaM-CaMKII.loop2.water2.frame409 

   -2  1 
C         51.76518       53.74299       40.13044
C         52.81401       52.77668       39.65240
O         53.68549       52.41390       40.42774
H         51.20741       53.29733       40.98122
H         52.24277       54.68803       40.46099
H         51.03484       53.98163       39.32727
N         52.77456       52.29900       38.37925
C         53.71344       51.31448       37.85256
C         55.13544       51.84858       37.78199
O         55.34925       52.88230       37.16370
C         53.26604       50.88211       36.44550
C         54.18359       49.83264       35.89609
O         54.40593       48.70398       36.59624
O         54.75715       50.01522       34.83468
H         52.00768       52.62046       37.76738
H         53.67515       50.41064       38.49990
H         53.23777       51.75793       35.75984
H         52.24103       50.46287       36.50569
N         56.16566       51.14407       38.34129
C         57.56192       51.55503       38.25945
C         58.46754       50.53749       37.55462
O         59.62250       50.88551       37.34918
C         58.08425       51.80671       39.67823
H         55.95068       50.27880       38.84918
H         57.64179       52.50565       37.68927
H         58.04205       50.86970       40.27633
H         59.13461       52.16738       39.65494
H         57.46167       52.57584       40.18289
N         58.06844       49.27197       37.19891
C         58.99481       48.29120       36.60294
C         58.49162       47.62097       35.32432
O         59.27028       46.90145       34.71328
C         59.37403       47.23109       37.65587
C         58.22390       46.39821       38.14534
O         58.39590       45.63450       39.08159
O         57.00236       46.48862       37.59091
H         57.11738       48.96785       37.44189
H         59.94200       48.80202       36.32610
H         59.79833       47.77222       38.52961
H         60.15937       46.55094       37.26116
N         57.22170       47.78334       34.86016
C         56.73506       47.18312       33.62854
C         56.78006       45.66894       33.63561
O         57.44718       45.11148       32.77528
H         56.56905       48.37570       35.37939
H         57.34183       47.57119       32.78051
H         55.68292       47.49629       33.45776
N         56.07038       44.93559       34.54605
C         56.03348       43.46731       34.52621
C         54.62885       42.90318       34.27410
O         54.52002       41.69586       34.10873
C         56.66430       42.88006       35.81392
C         55.91940       43.17151       37.09276
N         56.36728       42.68220       38.27033
O         54.90457       43.84149       37.07680
H         55.53481       45.44412       35.26448
H         56.65646       43.09654       33.68409
H         57.70006       43.27054       35.91450
H         56.72266       41.77534       35.70680
H         57.22180       42.10963       38.31462
H         55.84987       42.87255       39.14074
N         53.51565       43.69558       34.23471
C         52.17019       43.21406       33.94403
C         51.22601       43.28849       35.13546
O         50.05342       42.99590       34.95522
H         53.60887       44.69862       34.40851
H         52.18110       42.15439       33.60830
H         51.76466       43.82241       33.10764
N         51.67730       43.56564       36.39366
C         50.86459       43.44375       37.60283
C         51.06171       44.62664       38.55308
O         51.86097       45.51121       38.29046
C         51.26360       42.12057       38.32608
C         50.81533       40.89132       37.53170
O         52.65436       42.05183       38.52117
H         52.67466       43.73449       36.52493
H         49.78142       43.39558       37.35501
H         50.74891       42.02208       39.30646
H         52.88259       42.69360       39.24226
H         51.09147       39.96695       38.08262
H         49.71022       40.90307       37.41004
H         51.29087       40.85799       36.53041
N         50.37828       44.63322       39.73523
C         50.56504       45.57418       40.83599
C         51.28670       44.82351       41.94047
O         50.88881       43.72384       42.29733
C         49.18289       46.14519       41.29721
C         48.68567       47.26611       40.34324
C         49.17481       46.64022       42.75969
C         49.41781       48.61162       40.50760
H         49.72850       43.85431       39.91655
H         51.22427       46.41491       40.54861
H         48.44985       45.30881       41.26318
H         47.61187       47.46636       40.54724
H         48.77119       46.91753       39.29141
H         49.94206       47.42237       42.93004
H         48.17194       47.03976       43.02212
H         49.38255       45.80206       43.45718
H         49.23282       49.04708       41.51185
H         50.50891       48.51272       40.38391
H         49.04034       49.34091       39.76135
N         52.36211       45.40391       42.54197
C         53.18638       44.75947       43.55686
C         52.89657       45.39540       44.89620
O         52.05837       46.27941       44.96035
C         54.67468       44.95810       43.20661
C         55.01006       44.58949       41.79516
O         54.37286       45.24267       40.80738
O         55.93428       43.83291       41.54596
H         52.60642       46.37146       42.28493
H         52.95380       43.67475       43.62102
H         55.32880       44.41160       43.91930
H         54.90850       46.04342       43.28850
N         53.53467       44.98584       46.02793
C         53.22424       45.58825       47.31490
C         53.58337       47.07654       47.33762
O         52.69256       47.85620       47.65320
C         53.87022       44.82279       48.49097
C         53.31910       45.33165       49.79916
C         51.96989       45.10461       50.12594
C         54.13256       46.04638       50.69273
C         51.44363       45.58620       51.32532
C         53.59864       46.53445       51.88953
C         52.25625       46.30367       52.20571
H         54.21466       44.21376       45.97711
H         52.12579       45.48118       47.45831
H         54.96613       44.91511       48.48053
H         53.64478       43.73680       48.41824
H         51.32629       44.55059       49.45323
H         55.17158       46.24000       50.45632
H         50.40484       45.40433       51.56885
H         54.22488       47.09474       52.57074
H         51.84453       46.68101       53.13210
N         54.82492       47.57424       47.01601
C         55.16879       48.99340       47.04326
C         54.19523       49.86303       46.27340
O         53.75493       50.88189       46.78354
C         56.54044       49.05474       46.34876
C         57.14293       47.73057       46.73155
C         55.95746       46.79006       46.54692
H         55.25378       49.32332       48.10334
H         56.42204       49.01767       45.24107
H         57.14458       49.95310       46.59805
H         58.05386       47.44199       46.16447
H         57.39172       47.77676       47.81636
H         55.79291       46.53745       45.47846
H         56.17899       45.87924       47.11955
N         53.83932       49.50072       45.01112
C         52.99944       50.30260       44.13000
C         51.63045       50.50532       44.75195
O         51.24822       51.64424       44.98281
C         52.89011       49.62260       42.74230
C         54.27432       49.45821       42.06963
C         54.22261       48.68627       40.78400
O         55.26261       48.42442       40.20475
O         53.05928       48.24036       40.27918
H         54.20265       48.60169       44.66724
H         53.47973       51.29596       43.97941
H         52.23498       50.22838       42.07780
H         52.42686       48.62226       42.87015
H         54.96700       48.89510       42.72308
H         54.72318       50.45690       41.88484
N         50.85169       49.43636       45.07417
C         49.55508       49.53939       45.71034
H         48.78808       49.06853       45.06088
H         49.58263       48.99809       46.68007
H         49.26022       50.59131       45.90539
H         51.19812       48.49277       44.87333
Ca        55.35288       45.78832       38.90031
O         52.93261       46.74207       35.45206
H         53.51876       47.07784       34.72804
H         52.05419       46.60541       35.01854
O         51.63965       48.16457       37.43741
H         51.22880       48.40580       38.29964
H         50.90271       48.24549       36.78276

Ca 1.0



