%chk=holoCaM.loop3.water3.frame267.chk
%nprocshared=20
%mem=10GB
%nosave
#b3lyp/svp scf=(tight,noincore,xqc) Test 
#IOP(5/87=12) Density=Current Pop=(MK,readradii) iop(6/33=2) iop(6/42=6)

holoCaM.loop3.water3.frame267 

   0  1 
C         42.52303       -7.67238       64.70882
C         41.71549       -8.14677       63.53480
O         42.13760       -9.07391       62.86145
H         43.52142       -7.33434       64.36260
H         42.02794       -6.82264       65.22668
H         42.64403       -8.50092       65.43681
N         40.52637       -7.55377       63.24262
C         39.66006       -7.94424       62.13149
C         40.38379       -7.72473       60.80044
O         40.51545       -6.59584       60.35045
C         38.33213       -7.16876       62.30320
C         37.29769       -7.21695       61.22479
O         36.77029       -8.35173       60.73488
O         36.85522       -6.15701       60.81283
H         40.21560       -6.79283       63.86768
H         39.42384       -9.02607       62.23360
H         38.57448       -6.09153       62.45072
H         37.85745       -7.53292       63.24051
N         40.97210       -8.79316       60.18105
C         41.81699       -8.72520       58.98904
C         40.95582       -8.71475       57.74335
O         40.98729       -7.73207       57.01556
C         42.84166       -9.88480       59.04095
C         43.77403       -9.97807       57.82462
C         44.95421      -10.91274       58.14105
C         45.84546      -11.15333       56.91670
N         47.04345      -11.90929       57.28689
H         40.91908       -9.69588       60.66530
H         42.41964       -7.78927       59.02139
H         42.33320      -10.86756       59.16199
H         43.45446       -9.70801       59.95354
H         44.18730       -8.97692       57.57594
H         43.19045      -10.35336       56.95509
H         44.58703      -11.89605       58.50906
H         45.55858      -10.43828       58.94652
H         46.15700      -10.18288       56.47215
H         45.26520      -11.72098       56.15514
H         46.78338      -12.80947       57.75154
H         47.59948      -12.11827       56.42655
H         47.63412      -11.33881       57.93571
N         40.11758       -9.75331       57.46057
C         39.15070       -9.72046       56.35617
C         38.11943       -8.58313       56.49590
O         37.36123       -8.38666       55.55549
C         38.41044      -11.08147       56.19550
C         37.67743      -11.50674       57.44281
O         36.96082      -12.49265       57.44084
O         37.87095      -10.79722       58.56656
H         40.16930      -10.58486       58.06674
H         39.71639       -9.54067       55.41481
H         39.13406      -11.88057       55.92696
H         37.68476      -10.98903       55.35682
N         38.05016       -7.76775       57.59486
C         37.20117       -6.58723       57.65121
C         35.71528       -6.85072       57.83359
O         34.97134       -5.88111       57.79171
H         38.68441       -7.90917       58.38959
H         37.36690       -5.99530       56.72362
H         37.53387       -5.94112       58.48657
N         35.19032       -8.10042       58.01105
C         33.74140       -8.33143       58.00017
C         32.98521       -7.83358       59.23678
O         31.76208       -7.81931       59.18869
C         33.42145       -9.81718       57.73381
C         33.65499      -10.71741       58.92354
N         32.64020      -11.45801       59.42887
O         34.76218      -10.78676       59.43047
H         35.82740       -8.90837       58.02200
H         33.35718       -7.78052       57.11262
H         34.03315      -10.16871       56.87452
H         32.35498       -9.89318       57.43259
H         31.69923      -11.42261       59.00969
H         32.79343      -12.07720       60.23798
N         33.62049       -7.45976       60.38414
C         32.94004       -6.97628       61.57567
C         33.11011       -7.87012       62.79480
O         32.64277       -7.46129       63.84575
H         34.63874       -7.50711       60.42406
H         31.84751       -6.85863       61.40670
H         33.34841       -5.97021       61.81496
N         33.70806       -9.10452       62.74400
C         33.80694       -9.97666       63.92148
C         35.24104      -10.39518       64.20974
O         36.12124      -10.14884       63.40336
C         32.94476      -11.24159       63.72998
C         31.47055      -10.92926       63.68827
C         30.86540      -10.39847       62.53586
C         30.68282      -11.17706       64.82414
C         29.49344      -10.12217       62.52554
C         29.31844      -10.88744       64.81663
C         28.71730      -10.36021       63.66612
O         27.39901      -10.07929       63.64768
H         34.05946       -9.46320       61.84648
H         33.44647       -9.44784       64.82993
H         33.12780      -11.91174       64.59728
H         33.23896      -11.81343       62.82478
H         31.44822      -10.20926       61.64387
H         31.12900      -11.58098       65.72462
H         29.03297       -9.72127       61.63126
H         28.73182      -11.07347       65.70719
H         26.83377      -10.22334       64.42047
N         35.53152      -11.03418       65.39141
C         36.85731      -11.54365       65.73492
C         36.73521      -13.01611       66.12131
O         36.12184      -13.31871       67.13401
C         37.50588      -10.70236       66.87477
C         37.62465       -9.21790       66.43192
C         38.89334      -11.27691       67.24060
C         38.15680       -8.28247       67.51938
H         34.77993      -11.15533       66.08525
H         37.52473      -11.45351       64.86455
H         36.85223      -10.75502       67.77389
H         36.61817       -8.83756       66.15689
H         38.27994       -9.14060       65.53588
H         39.35229      -10.72511       68.08410
H         38.81115      -12.33067       67.57587
H         39.57788      -11.23675       66.36571
H         37.50306       -8.32525       68.41610
H         39.19715       -8.53449       67.80554
H         38.16253       -7.24071       67.13446
N         37.29604      -13.98580       65.34169
C         37.22003      -15.41493       65.65239
C         38.33085      -15.83506       66.60790
O         39.14209      -15.00732       66.98933
C         37.33377      -16.22950       64.34797
O         38.59017      -16.03155       63.75632
H         37.74193      -13.69782       64.46045
H         36.22477      -15.64675       66.09202
H         36.53638      -15.91205       63.64237
H         37.18432      -17.30961       64.57251
H         38.73423      -16.78968       63.13289
N         38.44589      -17.13624       67.00555
C         39.57691      -17.64145       67.78083
C         40.85680      -17.55039       66.96388
O         41.81886      -16.94981       67.42264
C         39.34091      -19.10423       68.17942
H         37.71408      -17.80298       66.71791
H         39.67574      -17.05935       68.72468
H         38.42421      -19.18217       68.80106
H         39.21783      -19.75297       67.28634
H         40.20041      -19.47951       68.77614
N         40.92392      -18.12602       65.72521
C         42.11111      -18.11108       64.86625
C         42.51961      -16.71984       64.38500
O         43.50377      -16.62661       63.66368
C         41.85507      -18.98904       63.63137
H         40.08691      -18.62588       65.38667
H         42.95978      -18.55711       65.42981
H         41.59447      -20.02188       63.94476
H         41.01757      -18.57438       63.02845
H         42.76197      -19.04397       62.99127
N         41.83251      -15.59901       64.73699
C         42.15482      -14.26171       64.27151
C         42.76720      -13.47610       65.41332
O         43.87083      -12.97501       65.24808
C         40.87283      -13.65748       63.68019
C         41.06401      -12.27675       63.05695
C         39.84777      -11.93853       62.24767
O         39.93421      -11.81171       61.03827
O         38.64548      -11.84263       62.83429
H         41.02244      -15.67301       65.35870
H         42.90808      -14.29749       63.45195
H         40.06972      -13.61294       64.44710
H         40.54837      -14.35277       62.87270
H         41.94202      -12.29592       62.37694
H         41.23616      -11.51294       63.84644
N         42.15033      -13.39438       66.62450
C         42.74732      -12.76562       67.78512
H         43.73844      -12.31698       67.56381
H         42.07257      -11.97409       68.16810
H         42.88900      -13.53281       68.57715
H         41.23598      -13.83988       66.75549
Ca        37.28942      -10.51528       60.69858
O         34.96488      -13.73709       59.22832
H         34.58467      -14.64611       59.31336
H         35.93890      -13.86646       59.33885
O         35.45458      -13.36208       62.38784
H         34.62610      -13.50778       61.86626
H         35.24945      -13.73902       63.27969
O         38.37007      -14.22003       60.44005
H         38.02774      -15.01830       59.96574
H         38.21433      -14.41383       61.39835

Ca 1.0



