%chk=holoCaM-CaMKII.loop3.water2.frame224.chk
%nprocshared=20
%mem=10GB
%nosave
#b3lyp/svp scf=(tight,noincore,xqc) Test 
#IOP(5/87=12) Density=Current Pop=(MK,readradii) iop(6/33=2) iop(6/42=6)

holoCaM-CaMKII.loop3.water2.frame224 

   0  1 
C         26.10510       39.08813       37.96147
C         26.51565       38.67835       36.57940
O         25.73727       38.05105       35.87958
H         25.07411       38.74371       38.18740
H         26.80236       38.63637       38.69939
H         26.14814       40.19383       38.05231
N         27.75125       39.00741       36.12166
C         28.25940       38.62046       34.80746
C         28.30473       37.09379       34.72220
O         29.07504       36.47902       35.44553
C         29.62238       39.33175       34.61859
C         30.43385       39.10289       33.37382
O         31.58631       38.72520       33.50652
O         30.01584       39.41389       32.13044
H         28.35459       39.56132       36.75162
H         27.57879       39.00994       34.03091
H         30.26781       39.05799       35.48370
H         29.43805       40.42746       34.67850
N         27.44765       36.42241       33.88938
C         27.37849       34.96072       33.75893
C         27.80416       34.48706       32.37078
O         27.87903       33.28365       32.16380
C         25.94378       34.45780       34.03678
C         25.53767       34.55467       35.51240
C         24.10982       34.01473       35.70950
C         23.70620       33.86967       37.18618
N         23.69036       35.14660       37.89933
H         26.79831       36.97855       33.31239
H         28.08172       34.47251       34.46823
H         25.88293       33.37953       33.76921
H         25.22533       35.01179       33.39107
H         25.59659       35.60150       35.85965
H         26.24686       33.93909       36.10742
H         24.04611       32.99812       35.26263
H         23.38467       34.67026       35.17832
H         24.40192       33.16548       37.69439
H         22.68674       33.42418       37.22241
H         24.65178       35.55151       37.95223
H         23.04125       35.81633       37.42686
H         23.35297       34.97974       38.87515
N         28.14287       35.36682       31.39262
C         28.70487       34.99256       30.09532
C         30.15420       35.47098       29.99994
O         30.78657       35.20887       28.98622
C         27.80757       35.50445       28.92583
C         27.57033       36.99328       28.92180
O         26.80353       37.50629       28.12463
O         28.18083       37.72986       29.85473
H         28.06556       36.36183       31.60968
H         28.74554       33.88579       29.99636
H         26.81701       35.01052       29.02579
H         28.24633       35.19920       27.95105
N         30.77152       36.11917       31.03997
C         32.18044       36.46879       31.04484
C         32.57952       37.54994       30.06557
O         33.76838       37.83030       30.00411
H         30.26523       36.31001       31.91514
H         32.77173       35.54963       30.84519
H         32.46210       36.82553       32.05795
N         31.68540       38.20197       29.26371
C         32.12261       39.17429       28.26493
C         32.75338       40.43170       28.86022
O         33.30148       41.20490       28.08509
C         30.98163       39.51687       27.27750
C         29.80627       40.26342       27.86009
N         28.74779       40.55935       27.07202
O         29.79986       40.60751       29.03071
H         30.68829       37.95818       29.30999
H         32.90393       38.66699       27.65515
H         30.60785       38.56328       26.84366
H         31.39456       40.12812       26.44616
H         28.73551       40.27647       26.08110
H         27.93680       41.06781       27.45128
N         32.73265       40.71085       30.20074
C         33.41906       41.85596       30.78175
C         32.50405       42.86815       31.44051
O         33.02694       43.86004       31.92013
H         32.24041       40.08071       30.84941
H         33.99303       42.40917       30.00760
H         34.14940       41.48701       31.53328
N         31.14587       42.71331       31.49855
C         30.25946       43.75672       32.03272
C         28.85041       43.23252       32.30914
O         28.57865       42.06817       32.09081
C         30.31669       45.01137       31.12004
C         30.19032       44.69851       29.64399
C         31.32788       44.78435       28.81835
C         28.96503       44.32492       29.07559
C         31.24320       44.49253       27.45632
C         28.87797       44.04393       27.70513
C         30.02004       44.12416       26.89254
O         29.95603       43.85437       25.57291
H         30.73273       41.85031       31.13031
H         30.61828       44.04885       33.04400
H         31.31470       45.46785       31.27966
H         29.59411       45.79716       31.42392
H         32.28918       45.06608       29.23010
H         28.08071       44.26751       29.69118
H         32.13127       44.55539       26.83927
H         27.92482       43.76536       27.27448
H         29.13034       43.60278       25.13611
N         27.92837       44.04640       32.90563
C         26.65243       43.56787       33.43781
C         25.50527       44.20379       32.67504
O         25.47497       45.41769       32.54086
C         26.56685       43.90373       34.96198
C         27.75960       43.27197       35.73015
C         25.22423       43.42144       35.55496
C         27.83594       43.69556       37.20016
H         28.16584       45.03494       33.06504
H         26.57005       42.46492       33.34435
H         26.62407       45.00939       35.07663
H         28.71235       43.60213       35.26530
H         27.71055       42.16280       35.66673
H         24.37215       43.90016       35.03642
H         25.12739       42.31787       35.46387
H         25.12206       43.70428       36.62077
H         28.74186       43.25276       37.66471
H         27.90696       44.80195       37.27582
H         26.96041       43.34271       37.78001
N         24.47597       43.42626       32.22220
C         23.29094       43.96815       31.56351
C         22.12296       43.99751       32.53217
O         22.25891       43.54367       33.65460
C         22.95213       43.12828       30.31777
O         22.67408       41.80376       30.68968
H         24.48902       42.41847       32.43663
H         23.47278       45.01851       31.25002
H         23.80970       43.14420       29.61410
H         22.06765       43.56576       29.80384
H         22.32599       41.34969       29.87895
N         20.93839       44.55882       32.16545
C         19.77952       44.62756       33.05101
C         19.28999       43.24024       33.41626
O         19.10823       42.96385       34.59383
C         18.64716       45.40747       32.37736
H         20.86451       44.96740       31.22152
H         20.04844       45.18669       33.97607
H         18.32354       44.91126       31.43828
H         17.77811       45.48346       33.06596
H         18.99217       46.43667       32.14004
N         19.08347       42.30807       32.44317
C         18.60211       40.95224       32.69478
C         19.43225       40.25052       33.75040
O         18.86637       39.75550       34.71517
C         18.62582       40.14148       31.39251
H         19.30395       42.57545       31.47066
H         17.54808       40.99901       33.04834
H         19.66069       40.06866       30.99221
H         18.23821       39.11574       31.56966
H         17.98574       40.63104       30.62796
N         20.78764       40.20666       33.64820
C         21.64804       39.57689       34.64631
C         21.40756       40.17538       36.02242
O         21.04000       39.43930       36.92821
C         23.12548       39.73602       34.24008
C         23.45768       38.90047       32.99001
C         24.85968       39.12133       32.50532
O         25.65131       40.04740       33.07570
O         25.27924       38.47138       31.56226
H         21.22001       40.67132       32.83522
H         21.41535       38.48910       34.70403
H         23.77595       39.38665       35.06779
H         23.34060       40.81288       34.06234
H         22.77623       39.14823       32.15026
H         23.32914       37.82553       33.24440
N         21.57387       41.50416       36.25139
C         21.31802       42.10547       37.54113
H         20.25877       41.93832       37.83233
H         21.98966       41.66414       38.30707
H         21.50156       43.19994       37.49033
H         21.87767       42.11244       35.48537
Ca        28.06405       39.61539       31.02320
O         26.42212       42.17119       29.50845
H         26.14922       43.01251       29.95115
H         26.07291       42.25651       28.58586
O         24.92877       39.70689       28.94134
H         25.38287       39.77501       28.06413
H         24.40965       38.86557       28.88992

Ca 1.0



