%chk=holoCaM-CaMKII.loop2.water1.frame303.chk
%nprocshared=20
%mem=10GB
%nosave
#b3lyp/svp scf=(tight,noincore,xqc) Test 
#IOP(5/87=12) Density=Current Pop=(MK,readradii) iop(6/33=2) iop(6/42=6)

holoCaM-CaMKII.loop2.water1.frame303 

   -2  1 
C         55.84419       30.07747       53.36911
C         57.12356       30.72336       52.90567
O         57.37433       31.87020       53.24451
H         54.96781       30.64237       52.99204
H         55.76344       29.02846       53.00782
H         55.81921       30.05466       54.47908
N         57.99677       30.01730       52.14025
C         59.30215       30.50626       51.70720
C         59.21299       31.70620       50.77007
O         58.54797       31.61718       49.74740
C         60.04478       29.35325       51.00785
C         61.40484       29.76335       50.54837
O         62.29321       30.25822       51.43044
O         61.70291       29.66016       49.36968
H         57.73594       29.04894       51.89396
H         59.89479       30.77958       52.60774
H         59.45321       28.99370       50.13620
H         60.15994       28.51255       51.72529
N         59.93617       32.83767       51.03630
C         59.99180       34.00202       50.15617
C         61.40829       34.30761       49.63813
O         61.52283       35.22356       48.83522
C         59.45000       35.21870       50.91933
H         60.48592       32.87294       51.90370
H         59.34693       33.83740       49.26619
H         58.41082       35.02505       51.26134
H         60.08018       35.42857       51.81187
H         59.44020       36.12227       50.27295
N         62.52841       33.64175       50.06807
C         63.89750       34.01183       49.65904
C         64.79938       32.82386       49.27551
O         65.94486       33.06128       48.91798
C         64.54759       34.86222       50.76981
C         64.68438       34.15587       52.08034
O         65.07951       34.76967       53.05848
O         64.32021       32.87229       52.21164
H         62.41403       32.92751       50.79553
H         63.85527       34.67623       48.76898
H         63.90105       35.75235       50.93515
H         65.54905       35.22109       50.45049
N         64.35646       31.53539       49.28929
C         65.13489       30.38736       48.82956
C         66.29180       29.92806       49.71058
O         66.94875       28.97663       49.31118
H         63.38089       31.36595       49.53407
H         65.51296       30.60322       47.80735
H         64.45118       29.51420       48.75260
N         66.61294       30.51002       50.90139
C         67.75134       30.07288       51.72447
C         67.58154       28.68932       52.39331
O         68.48685       28.28863       53.11253
C         68.09707       31.16396       52.76802
C         67.04133       31.40467       53.80843
N         67.21658       32.36882       54.73827
O         66.02399       30.73548       53.81848
H         66.07394       31.33200       51.20188
H         68.64856       30.02306       51.06810
H         68.27289       32.11859       52.22522
H         69.04016       30.89342       53.29082
H         68.06411       32.95443       54.73955
H         66.49891       32.53233       55.45557
N         66.48943       27.89113       52.18809
C         66.34010       26.54810       52.74958
C         65.90646       26.48985       54.21112
O         65.70835       25.38722       54.70093
H         65.76270       28.19450       51.53037
H         67.27652       25.96731       52.59159
H         65.53855       26.02914       52.18128
N         65.73477       27.60943       54.96778
C         65.31927       27.61439       56.37015
C         64.16605       28.57654       56.61770
O         64.24447       29.72595       56.21355
C         66.50128       28.04962       57.27098
C         67.50821       26.91492       57.44672
O         67.16174       29.17484       56.74575
H         65.95220       28.51463       54.54738
H         65.00471       26.60375       56.71475
H         66.12941       28.26671       58.30134
H         66.61492       29.97165       56.96489
H         67.93593       26.60195       56.47290
H         68.32691       27.24571       58.12000
H         67.00771       26.04221       57.92258
N         63.12216       28.19816       57.41277
C         62.12437       29.13455       57.93509
C         62.81807       30.21168       58.77000
O         63.62319       29.89357       59.63392
C         61.03368       28.38166       58.77018
C         60.16262       27.52611       57.80721
C         60.14505       29.36335       59.56178
C         59.05028       26.72744       58.49104
H         63.08914       27.22069       57.74019
H         61.59406       29.62963       57.09500
H         61.53434       27.72963       59.51989
H         60.81086       26.80466       57.26809
H         59.68620       28.19003       57.05073
H         59.60400       30.03704       58.87209
H         59.41471       28.82667       60.19697
H         60.74910       29.96370       60.27092
H         58.30019       27.39447       58.96365
H         58.50960       26.12865       57.72820
H         59.47597       26.04321       59.25322
N         62.46413       31.51646       58.59586
C         63.00130       32.65267       59.34311
C         61.93347       33.14964       60.29253
O         60.87369       32.54655       60.35382
C         63.32495       33.80530       58.36661
C         64.16412       33.39263       57.21247
O         63.73030       32.36815       56.46604
O         65.13556       34.04866       56.87363
H         61.71779       31.72316       57.91864
H         63.90746       32.36266       59.91846
H         63.79108       34.67000       58.88482
H         62.36519       34.14863       57.91734
N         62.11645       34.25833       61.05840
C         61.05112       34.76980       61.90564
C         59.82485       35.21272       61.08661
O         58.74918       34.71627       61.38954
C         61.54473       35.89762       62.83148
C         60.47910       36.21999       63.85241
C         60.09837       35.24944       64.79966
C         59.84335       37.47106       63.86007
C         59.09460       35.52318       65.72912
C         58.83563       37.74006       64.79282
C         58.46105       36.76691       65.72470
H         63.02818       34.74134       61.04309
H         60.75117       33.93186       62.57289
H         61.81959       36.78870       62.23731
H         62.45799       35.57399       63.37675
H         60.57669       34.27776       64.81920
H         60.11605       38.23024       63.13792
H         58.80730       34.76794       66.44967
H         58.34083       38.70183       64.79068
H         57.67972       36.97478       66.44353
N         59.87389       36.10900       60.03933
C         58.69583       36.56256       59.29493
C         58.05545       35.50089       58.40178
O         57.09889       35.83577       57.71630
C         59.22254       37.75439       58.48632
C         60.64255       37.33514       58.19686
C         61.07118       36.76501       59.54550
H         57.90608       36.94157       59.98008
H         58.61007       38.04877       57.60668
H         59.28775       38.63443       59.16705
H         60.60346       36.50628       57.45307
H         61.30666       38.13540       57.80598
H         61.92088       36.08511       59.36733
H         61.35172       37.57973       60.24447
N         58.46756       34.20389       58.39830
C         57.80009       33.14117       57.65795
C         57.02316       32.28967       58.64631
O         55.82681       32.11974       58.45906
C         58.83035       32.32427       56.85928
C         59.55756       33.20720       55.83228
C         60.59513       32.47000       55.03840
O         61.25059       33.08224       54.21358
O         60.82178       31.15486       55.21998
H         59.25533       33.92552       58.99092
H         57.06543       33.55012       56.92807
H         58.31639       31.49158       56.32984
H         59.56587       31.89046       57.55920
H         60.06985       34.04095       56.35797
H         58.81442       33.63245       55.12365
N         57.62171       31.78607       59.76262
C         56.91942       31.05647       60.79788
H         55.84723       30.90460       60.55793
H         57.39693       30.06697       60.94480
H         56.98629       31.62718       61.74955
H         58.61770       31.96242       59.92183
Ca        63.94293       32.29335       54.29137
O         63.59700       28.45606       53.03660
H         62.70212       28.43376       53.45724
H         63.47953       27.98181       52.17497

Ca 1.0



