%chk=holoCaM.loop2.water3.frame498.chk
%nprocshared=20
%mem=10GB
%nosave
#b3lyp/svp scf=(tight,noincore,xqc) Test 
#IOP(5/87=12) Density=Current Pop=(MK,readradii) iop(6/33=2) iop(6/42=6)

holoCaM.loop2.water3.frame498 

   -2  1 
C         67.34272       83.83617       13.81301
C         66.64891       85.03407       14.39184
O         66.60044       85.15406       15.60807
H         68.39980       83.82434       14.15551
H         66.83963       82.90857       14.15481
H         67.33663       83.85982       12.70301
N         66.11166       85.98665       13.57814
C         65.51502       87.20672       14.10112
C         64.24913       86.90999       14.90466
O         63.29287       86.38749       14.34897
C         65.19343       88.19327       12.95448
C         64.81106       89.55128       13.47860
O         64.87386       89.80592       14.79341
O         64.47726       90.43633       12.71435
H         66.19160       85.86752       12.55623
H         66.28622       87.68946       14.74080
H         64.37453       87.78121       12.32566
H         66.09127       88.32886       12.31282
N         64.18177       87.23979       16.22558
C         63.00735       87.03203       17.06603
C         61.83490       87.87687       16.60211
O         60.78669       87.31048       16.32581
C         63.33059       87.36447       18.52709
H         65.01633       87.64846       16.65846
H         62.72913       85.95418       17.03665
H         63.63293       88.42654       18.64194
H         62.44189       87.17129       19.16586
H         64.16117       86.71787       18.88286
N         61.93885       89.23718       16.48182
C         60.83501       90.07887       16.00984
C         60.36721       89.56114       14.66313
O         59.20493       89.20366       14.53453
C         61.25634       91.56166       15.87798
C         61.69866       92.18097       17.18202
O         62.98349       92.55280       17.35011
O         60.89923       92.34547       18.08903
H         62.84448       89.67710       16.70234
H         59.99394       90.02154       16.73663
H         60.41454       92.16854       15.48056
H         62.06803       91.63278       15.13153
N         61.25498       89.42928       13.63790
C         60.93973       88.80187       12.36703
C         61.12875       89.71752       11.17958
O         60.92057       89.24925       10.06893
H         62.22407       89.73227       13.78813
H         59.89092       88.43563       12.34816
H         61.60678       87.92169       12.24701
N         61.47142       91.03305       11.31044
C         61.52282       91.93161       10.15888
C         62.68458       91.64656        9.21073
O         62.70113       92.24332        8.14288
C         61.60114       93.40419       10.61510
C         60.47690       93.77411       11.55432
N         59.18404       93.69137       11.16235
O         60.74053       94.15294       12.68584
H         61.60614       91.42773       12.25253
H         60.57274       91.79983        9.59454
H         61.55610       94.07596        9.73062
H         62.57595       93.56996       11.12215
H         58.93625       93.37849       10.21301
H         58.42502       93.94173       11.81348
N         63.70684       90.79804        9.53170
C         64.83061       90.53037        8.64424
C         66.15825       91.05324        9.16870
O         67.14807       90.85367        8.47898
H         63.70763       90.32205       10.44054
H         64.67569       90.99823        7.64889
H         64.89900       89.43246        8.48668
N         66.27198       91.74636       10.34250
C         67.53512       92.31038       10.82830
C         67.97600       91.66139       12.13157
O         67.27335       90.81853       12.66488
C         67.42467       93.85130       10.95337
C         67.39985       94.53472        9.57883
O         66.30851       94.22091       11.72464
H         65.43243       91.90228       10.91557
H         68.36100       92.08589       10.11814
H         68.32990       94.25088       11.45692
H         65.50265       94.20207       11.14352
H         66.53213       94.19620        8.97553
H         67.34345       95.63622        9.71166
H         68.33594       94.29956        9.02767
N         69.21196       91.94522       12.63669
C         69.82901       91.22618       13.74558
C         70.26765       92.17804       14.85483
O         71.01999       93.10822       14.59997
C         71.03168       90.39536       13.18458
C         70.47921       89.24694       12.29158
C         71.91058       89.82425       14.31154
C         71.55007       88.37100       11.63813
H         69.79943       92.63454       12.14305
H         69.12543       90.49131       14.19133
H         71.68251       91.06460       12.57847
H         69.86756       89.68008       11.47288
H         69.82101       88.58745       12.90144
H         72.34273       90.64176       14.92278
H         71.31512       89.14777       14.95390
H         72.78606       89.28133       13.90630
H         72.14888       87.82308       12.39369
H         71.05594       87.60609       11.00235
H         72.21943       88.98765       11.00370
N         69.93814       91.87889       16.14697
C         70.52738       92.50047       17.32964
C         71.52574       91.51154       17.92075
O         71.66967       90.43402       17.36693
C         69.42733       92.82624       18.35919
C         68.41821       93.79789       17.82424
O         68.76118       94.92328       17.49927
O         67.12384       93.43802       17.72241
H         69.36179       91.04740       16.31958
H         71.08572       93.42335       17.05804
H         69.87620       93.26436       19.27570
H         68.90813       91.88415       18.64609
N         72.28766       91.79659       19.01382
C         73.30043       90.85536       19.49063
C         72.70832       89.50559       19.91270
O         73.18805       88.50984       19.38945
C         74.19812       91.45827       20.59392
C         75.27055       90.47074       21.00726
C         76.21857       90.00779       20.07401
C         75.31674       89.98401       22.32505
C         77.18391       89.07081       20.45157
C         76.28663       89.04805       22.69829
C         77.21750       88.59024       21.76216
H         72.18715       92.71375       19.47484
H         73.98599       90.66386       18.63462
H         73.59935       91.75476       21.47156
H         74.68494       92.38148       20.21219
H         76.20981       90.36370       19.05192
H         74.59716       90.31966       23.06121
H         77.90390       88.71473       19.72578
H         76.31344       88.67326       23.71303
H         77.96428       87.86232       22.05148
N         71.69317       89.35733       20.82604
C         71.13375       88.06453       21.22352
C         70.80716       87.16602       20.04771
O         71.15711       85.99464       20.04827
C         69.82779       88.44896       21.93910
C         70.20263       89.75774       22.58344
C         70.97553       90.44571       21.46290
H         71.83609       87.56412       21.92662
H         69.03299       88.69527       21.19717
H         69.42995       87.66849       22.62203
H         69.35561       90.35023       22.99009
H         70.91191       89.52653       23.41054
H         70.29812       90.90826       20.71164
H         71.61485       91.21378       21.92638
N         70.13210       87.69344       18.99747
C         69.69595       86.95936       17.81744
C         70.88934       86.36280       17.09422
O         70.90289       85.16106       16.86882
C         68.88848       87.91819       16.91484
C         67.62529       88.41267       17.66406
C         66.88435       89.50722       16.96619
O         67.26072       89.94761       15.89364
O         65.79756       90.03461       17.55998
H         69.93123       88.70284       19.04834
H         69.01151       86.13357       18.11689
H         68.57930       87.41105       15.97454
H         69.53568       88.77862       16.64815
H         67.87328       88.83795       18.65368
H         66.95175       87.54859       17.83943
N         71.94815       87.14218       16.74343
C         73.14446       86.64532       16.09658
H         74.01817       86.83438       16.75616
H         73.09162       85.55796       15.88418
H         73.29893       87.18564       15.14043
H         71.92564       88.13876       16.97491
Ca        64.38742       91.74579       15.79984
O         64.51686       95.24859       16.19007
H         64.35240       95.76363       15.36071
H         63.61228       95.03115       16.52737
O         66.94736       94.34480       14.48515
H         67.51534       94.67113       15.22422
H         66.58944       95.17269       14.07742
O         63.67488       93.49465       13.52990
H         64.50539       93.00865       13.29936
H         63.81641       94.40760       13.17523

Ca 1.0



