%chk=holoCaM.loop1.water2.frame276.chk
%nprocshared=20
%mem=10GB
%nosave
#b3lyp/svp scf=(tight,noincore,xqc) Test 
#IOP(5/87=12) Density=Current Pop=(MK,readradii) iop(6/33=2) iop(6/42=6)

holoCaM.loop1.water2.frame276 

   0  1 
C         34.66074        9.78473       37.30353
C         35.18694        9.64379       35.91130
O         35.74062       10.60009       35.38550
H         33.56871        9.59360       37.31253
H         35.17309        9.05235       37.96239
H         34.85577       10.80790       37.69092
N         35.07979        8.45378       35.25578
C         35.65827        8.25924       33.93757
C         34.93420        9.13019       32.91169
O         33.75617        8.92121       32.65692
C         35.62851        6.77215       33.53763
C         36.47278        6.50795       32.32810
O         37.21664        7.49068       31.78712
O         36.49181        5.39443       31.83917
H         34.63473        7.65817       35.73951
H         36.72931        8.55201       34.02178
H         34.57747        6.46220       33.34612
H         36.03352        6.14436       34.35991
N         35.58682       10.17750       32.34264
C         34.96367       11.16727       31.47128
C         34.52957       10.60066       30.12579
O         33.36165       10.73428       29.78863
C         35.93670       12.35639       31.27839
C         35.33295       13.59451       30.58863
C         34.13315       14.16295       31.36582
C         33.66868       15.51070       30.80817
N         32.51182       16.00209       31.55818
H         36.55218       10.34044       32.64818
H         34.07686       11.55098       32.01530
H         36.83246       12.02434       30.71014
H         36.28375       12.68575       32.28354
H         35.03423       13.35961       29.54430
H         36.13454       14.36524       30.55435
H         34.41921       14.30694       32.43094
H         33.28224       13.45257       31.31058
H         33.39422       15.40253       29.73591
H         34.49927       16.24699       30.88990
H         31.71056       15.33711       31.45600
H         32.75345       16.10394       32.57118
H         32.22741       16.93508       31.18297
N         35.41457        9.96670       29.30081
C         35.05258        9.45974       27.97140
C         34.65246        7.98848       27.99887
O         34.24071        7.48546       26.96190
C         36.17360        9.75988       26.94201
C         37.48054        9.16259       27.36952
O         37.56580        7.84242       27.58724
O         38.42057        9.88547       27.65820
H         36.36920        9.80197       29.65312
H         34.14363        9.98941       27.60975
H         36.29304       10.86205       26.85748
H         35.89669        9.36769       25.93935
N         34.67197        7.25244       29.14718
C         34.12143        5.91134       29.23276
C         34.84522        4.89559       28.38186
O         34.21182        4.29848       27.52306
H         35.01006        7.67380       30.02319
H         33.04785        5.95074       28.94136
H         34.16411        5.56465       30.28741
N         36.15586        4.59783       28.61138
C         36.86173        3.51631       27.92607
C         37.27092        2.39745       28.88718
O         37.80239        1.40383       28.40844
C         38.07043        4.05586       27.12917
C         39.07905        4.79531       27.95954
O         39.64260        4.20664       29.02215
O         39.42588        5.92158       27.64760
H         36.65893        5.12720       29.33546
H         36.19067        3.03116       27.18463
H         37.70706        4.72907       26.32278
H         38.58649        3.19891       26.64586
N         37.04931        2.46311       30.23457
C         37.37350        1.39131       31.16226
C         38.43831        1.77242       32.17350
O         38.70371        0.95694       33.04237
H         36.60825        3.29399       30.64286
H         37.73449        0.48297       30.63221
H         36.44298        1.11180       31.70193
N         39.14213        2.94441       32.09213
C         40.25807        3.25885       32.98666
C         40.23643        4.71601       33.44080
O         39.41352        5.49857       32.99613
C         41.60643        2.93393       32.28773
C         41.81283        1.42447       32.07635
O         41.73038        3.63575       31.07790
H         38.95851        3.58649       31.31312
H         40.19510        2.64192       33.90948
H         42.44812        3.24668       32.93904
H         41.28842        3.10137       30.36921
H         41.79180        0.89849       33.05409
H         41.03012        0.99495       31.41711
H         42.80288        1.24974       31.60401
N         41.15557        5.12169       34.36619
C         41.29040        6.47418       34.89394
C         42.70768        6.96717       34.60568
O         43.66660        6.28596       34.93435
C         40.96628        6.45266       36.42034
C         39.47360        6.09898       36.68902
C         41.33913        7.76310       37.13816
C         38.45140        7.13210       36.18380
H         41.80149        4.41582       34.74716
H         40.58470        7.17478       34.40981
H         41.58893        5.65861       36.88929
H         39.32602        5.99253       37.78559
H         39.23579        5.11732       36.22713
H         41.10121        7.68530       38.22043
H         42.42713        7.95981       37.05562
H         40.79647        8.62841       36.72054
H         38.49675        7.25119       35.08399
H         37.42634        6.79245       36.44033
H         38.59930        8.12153       36.66312
N         42.89192        8.19680       34.04382
C         44.19049        8.81564       33.78585
C         44.44971        9.86421       34.85479
O         43.66065        9.97673       35.77439
C         44.19891        9.47356       32.37487
C         44.00208        8.46462       31.23909
O         43.25310       10.51358       32.30267
H         42.06482        8.77885       33.88316
H         45.01149        8.06879       33.84403
H         45.19211        9.92966       32.18629
H         42.38770       10.14236       31.99430
H         44.80421        7.69877       31.25921
H         43.01607        7.97104       31.33529
H         44.04163        8.99639       30.26322
N         45.54097       10.67696       34.79792
C         45.77513       11.75840       35.75452
C         44.62635       12.76482       35.73488
O         44.07272       13.03877       36.79140
C         47.12385       12.46868       35.47278
C         48.31215       11.53370       35.73934
O         47.16520       12.93243       34.14734
H         46.21381       10.53867       34.03225
H         45.84140       11.33572       36.78341
H         47.20626       13.33003       36.17653
H         47.91760       13.57677       34.08842
H         48.29855       11.19405       36.79730
H         48.28790       10.64361       35.07758
H         49.26486       12.07620       35.56371
N         44.20895       13.34933       34.57264
C         43.14916       14.36454       34.50980
C         41.77154       13.88200       34.97662
O         40.87315       14.70819       35.05761
C         43.02550       14.92949       33.07132
C         42.48660       13.88193       32.08066
C         42.40634       14.40190       30.64701
C         41.85285       13.30162       29.72705
N         41.78563       13.75664       28.34068
H         44.70083       13.08971       33.70553
H         43.46306       15.19925       35.17512
H         44.02444       15.28858       32.74066
H         42.33500       15.80177       33.07496
H         41.46566       13.58192       32.39266
H         43.14508       12.99342       32.08747
H         43.42283       14.69583       30.30623
H         41.73976       15.29106       30.60761
H         40.83367       13.00852       30.06737
H         42.50842       12.40326       29.78378
H         41.15273       14.58556       28.26501
H         42.74232       14.00672       28.00018
H         41.40633       12.98334       27.74760
N         41.52227       12.57752       35.28218
C         40.22122       12.06985       35.70598
C         40.25628       11.75157       37.19674
O         39.27700       12.02968       37.87430
C         39.80703       10.85283       34.83812
C         39.81147       11.20354       33.33614
C         39.45209       10.05129       32.43297
O         40.11993        8.88740       32.49607
O         38.60316       10.19370       31.57136
H         42.27997       11.89455       35.19847
H         39.43420       12.84414       35.56631
H         38.79653       10.50238       35.14364
H         40.52760       10.03078       35.00496
H         40.83450       11.51311       33.06068
H         39.12114       12.05463       33.14444
N         41.38590       11.27119       37.79504
C         41.53235       11.06467       39.22066
H         42.35588       11.71225       39.59452
H         40.61059       11.31304       39.78418
H         41.80398       10.00668       39.41539
H         42.21532       11.07405       37.23275
Ca        38.04231        7.35792       29.71964
O         41.05847        9.35404       29.24147
H         41.93106        9.51423       28.80226
H         40.62821        8.65601       28.68646
O         41.51051        6.36433       29.96544
H         41.05316        6.28849       30.84040
H         42.41700        5.99834       30.12353

Ca 1.0



