%chk=holoCaM.loop3.water2.frame261.chk
%nprocshared=20
%mem=10GB
%nosave
#b3lyp/svp scf=(tight,noincore,xqc) Test 
#IOP(5/87=12) Density=Current Pop=(MK,readradii) iop(6/33=2) iop(6/42=6)

holoCaM.loop3.water2.frame261 

   0  1 
C         43.74284       -8.59933       71.96478
C         42.25233       -8.74661       71.99832
O         41.76214       -9.86071       72.11832
H         44.23892       -9.58961       72.05024
H         44.05543       -8.11216       71.01920
H         44.06366       -7.97134       72.82433
N         41.46209       -7.63984       71.94506
C         40.02034       -7.70655       72.12345
C         39.33172       -8.42133       70.95929
O         39.36512       -7.90288       69.85127
C         39.44029       -6.27474       72.28269
C         38.02595       -6.30640       72.76841
O         37.50545       -7.48785       73.10899
O         37.39759       -5.27951       72.93178
H         41.91855       -6.71682       71.87155
H         39.85022       -8.25602       73.07810
H         39.50370       -5.72994       71.31594
H         40.02398       -5.71314       73.04322
N         38.68870       -9.61608       71.13528
C         38.00443      -10.30338       70.04008
C         36.66134       -9.66119       69.70876
O         36.54215       -9.12070       68.61719
C         37.82779      -11.81468       70.32187
C         39.16964      -12.56063       70.23089
C         38.99932      -14.07200       70.43917
C         40.31156      -14.81244       70.13667
N         40.16458      -16.25420       70.33370
H         38.74166      -10.07217       72.05746
H         38.64061      -10.23339       69.12732
H         37.16943      -12.24646       69.53463
H         37.34105      -11.97977       71.30709
H         39.89431      -12.16121       70.97299
H         39.57802      -12.39360       69.20903
H         38.21770      -14.45817       69.74828
H         38.67836      -14.26647       71.48593
H         41.12348      -14.43137       70.79428
H         40.59977      -14.62132       69.07773
H         39.40569      -16.62911       69.71895
H         41.06345      -16.72627       70.08239
H         39.94295      -16.45788       71.33500
N         35.57764       -9.75142       70.54379
C         34.24694       -9.29608       70.12349
C         34.09843       -7.77337       70.06998
O         33.03746       -7.31552       69.66769
C         33.10891       -9.98396       70.92688
C         32.94333       -9.58373       72.36076
O         31.96606      -10.14374       73.09793
O         33.65468       -8.73938       72.86118
H         35.67454      -10.27093       71.42841
H         34.08801       -9.67951       69.09008
H         33.26588      -11.08368       70.88772
H         32.14208       -9.76354       70.42457
N         35.11742       -6.92424       70.40192
C         35.03101       -5.48181       70.22175
C         34.15557       -4.75187       71.22246
O         34.01448       -3.54662       71.06594
H         36.02622       -7.30254       70.69921
H         34.67961       -5.27270       69.18709
H         36.04871       -5.04575       70.31808
N         33.55985       -5.37099       72.28517
C         32.72442       -4.64680       73.24677
C         33.49601       -3.59167       74.03920
O         32.86702       -2.80424       74.73092
C         31.99326       -5.62304       74.20110
C         32.88497       -6.30732       75.21879
N         32.59635       -6.23929       76.53984
O         33.85943       -6.94448       74.85433
H         33.67939       -6.38214       72.39459
H         31.93898       -4.13125       72.65070
H         31.48938       -6.39777       73.58422
H         31.19877       -5.06408       74.74133
H         31.77303       -5.72135       76.87918
H         33.19265       -6.71903       77.23040
N         34.85809       -3.53889       74.00538
C         35.66127       -2.55539       74.70636
C         36.51676       -3.17750       75.78502
O         37.28380       -2.43549       76.38597
H         35.37152       -4.23816       73.46513
H         35.03086       -1.77746       75.18722
H         36.31573       -2.05075       73.96290
N         36.41189       -4.49562       76.14172
C         37.14414       -5.06003       77.26748
C         37.96074       -6.27424       76.88022
O         37.64343       -6.94863       75.90944
C         36.17571       -5.43937       78.40448
C         35.42321       -4.23229       78.91238
C         34.31897       -3.71772       78.20942
C         35.83354       -3.60035       80.09601
C         33.63735       -2.59445       78.68495
C         35.16101       -2.46824       80.56239
C         34.05828       -1.96249       79.85911
O         33.40048       -0.87158       80.29975
H         35.73968       -5.10943       75.65889
H         37.85248       -4.30847       77.68233
H         36.78203       -5.86529       79.23371
H         35.45805       -6.23101       78.09409
H         33.98026       -4.18517       77.29689
H         36.68734       -3.97286       80.64777
H         32.78435       -2.21274       78.13728
H         35.50076       -1.98446       81.46882
H         33.66706       -0.40096       81.10238
N         39.02150       -6.62736       77.65713
C         39.84809       -7.80957       77.45826
C         39.71427       -8.66532       78.70822
O         39.92170       -8.16138       79.80584
C         41.32755       -7.40617       77.18809
C         41.41794       -6.50085       75.92941
C         42.20126       -8.66878       77.00630
C         42.80948       -5.90592       75.70066
H         39.25812       -6.02039       78.45952
H         39.50588       -8.38922       76.57276
H         41.69854       -6.83406       78.06717
H         40.72809       -5.63832       76.04266
H         41.10719       -7.07238       75.02735
H         42.15188       -9.32045       77.90202
H         41.86141       -9.25473       76.12473
H         43.26951       -8.41165       76.86857
H         43.11233       -5.30167       76.58250
H         43.57091       -6.68781       75.51120
H         42.78368       -5.24150       74.81122
N         39.39061       -9.98087       78.60890
C         39.20233      -10.87416       79.74270
C         40.37122      -11.83327       79.84090
O         41.30524      -11.70916       79.06500
C         37.86516      -11.62069       79.56966
O         37.89954      -12.44475       78.43073
H         39.31581      -10.39235       77.67234
H         39.16255      -10.30299       80.69626
H         37.03398      -10.87854       79.50801
H         37.64734      -12.25789       80.45054
H         37.26132      -12.07088       77.76951
N         40.40530      -12.81209       80.78268
C         41.50805      -13.76183       80.89818
C         41.68395      -14.55931       79.61486
O         42.78344      -14.59508       79.08244
C         41.26293      -14.71546       82.07094
H         39.61359      -12.88778       81.44109
H         42.44902      -13.20762       81.11738
H         41.17093      -14.13473       83.01376
H         40.33116      -15.30104       81.92037
H         42.11810      -15.41680       82.17580
N         40.62223      -15.20415       79.05432
C         40.70287      -16.00742       77.83554
C         41.27488      -15.22615       76.67015
O         42.20685      -15.69970       76.03462
C         39.30417      -16.51175       77.45303
H         39.70495      -15.10708       79.51669
H         41.34551      -16.89591       78.02132
H         39.35848      -17.13818       76.53672
H         38.88164      -17.12703       78.27466
H         38.61564      -15.66000       77.25884
N         40.75311      -14.01792       76.33438
C         41.19929      -13.22714       75.18856
C         42.69026      -12.94874       75.30374
O         43.42999      -13.29463       74.39304
C         40.35059      -11.93864       75.07002
C         38.85542      -12.29522       74.85954
C         37.95729      -11.10420       74.81980
O         37.06736      -10.96114       73.82827
O         37.96385      -10.29073       75.72631
H         40.00991      -13.64893       76.94433
H         41.02953      -13.80583       74.25256
H         40.70499      -11.32617       74.21247
H         40.47810      -11.33976       75.99467
H         38.47815      -12.91637       75.68993
H         38.73373      -12.87491       73.91906
N         43.21180      -12.40840       76.43619
C         44.63491      -12.25837       76.64826
H         45.06763      -11.56630       75.89808
H         44.82408      -11.85641       77.66743
H         45.13152      -13.25096       76.57459
H         42.58203      -12.14588       77.19722
Ca        36.07566       -8.97334       73.85980
O         34.56995      -11.75044       74.97448
H         34.85052      -12.28487       74.18969
H         33.65074      -11.45701       74.75738
O         35.11912       -9.41217       77.19163
H         34.95835       -9.03945       78.09466
H         35.20338      -10.38771       77.33876

Ca 1.0



