%chk=holoCaM-CaMKII.loop4.water1.frame340.chk
%nprocshared=20
%mem=10GB
%nosave
#b3lyp/svp scf=(tight,noincore,xqc) Test 
#IOP(5/87=12) Density=Current Pop=(MK,readradii) iop(6/33=2) iop(6/42=6)

holoCaM-CaMKII.loop4.water1.frame340 

   -3  1 
C         16.78956       48.71038       50.41236
C         15.83742       47.65208       49.95520
O         16.10800       46.47446       50.13976
H         17.75334       48.57361       49.88212
H         16.40177       49.72415       50.17149
H         16.93979       48.64059       51.50792
N         14.69238       48.01414       49.32718
C         13.72982       47.06687       48.80399
C         14.36257       46.20600       47.70309
O         15.03143       46.75387       46.83867
C         12.51963       47.85720       48.26490
C         11.40508       46.94316       47.94276
O         10.46202       47.33235       47.28904
O         11.36284       45.77956       48.60202
H         14.49340       49.02080       49.21802
H         13.38299       46.42460       49.64820
H         12.81402       48.46768       47.38564
H         12.12177       48.53423       49.05257
N         14.16828       44.85277       47.66766
C         14.82795       43.93980       46.72735
C         13.90287       43.48946       45.59526
O         14.42390       43.09495       44.56016
C         15.41728       42.71240       47.51127
C         16.42866       43.19667       48.58207
C         16.02517       41.64697       46.57719
C         17.04588       42.07016       49.41875
H         13.52998       44.44803       48.35672
H         15.65998       44.48166       46.22438
H         14.58740       42.20265       48.04653
H         15.88794       43.86441       49.28348
H         17.24965       43.77813       48.11184
H         16.82165       42.08069       45.94057
H         16.43114       40.78868       47.14876
H         15.23325       41.20165       45.93902
H         16.26401       41.41010       49.84265
H         17.73786       41.45383       48.81107
H         17.63488       42.50678       50.25172
N         12.54532       43.47915       45.71307
C         11.65101       43.00974       44.64850
C         10.65788       44.08442       44.19056
O          9.84029       43.79495       43.32828
C         11.02893       41.62860       45.00310
C         10.29280       41.48058       46.29743
O          9.80828       40.40398       46.60014
O         10.22724       42.47884       47.16753
H         12.13130       43.79055       46.59992
H         12.22922       42.78668       43.72512
H         11.86078       40.89178       45.04268
H         10.34002       41.32543       44.18763
N         10.75767       45.37668       44.61667
C         10.00556       46.48730       44.04647
C          8.51955       46.45256       44.32046
O          7.73510       46.63490       43.40095
H         11.47608       45.62774       45.30980
H         10.20406       46.56419       42.95471
H         10.38775       47.42430       44.50924
N          8.07597       46.31324       45.59510
C          6.69415       46.47319       46.03096
C          6.56346       47.66897       46.98996
O          5.47894       47.87260       47.51843
C          6.18115       45.15730       46.66638
C          7.06645       44.59014       47.73418
O          7.23121       43.38509       47.81780
O          7.79012       45.40110       48.50970
H          8.77398       46.11743       46.31826
H          6.01969       46.69002       45.17352
H          6.08321       44.38331       45.87573
H          5.16611       45.31310       47.09051
N          7.59455       48.54648       47.20540
C          7.48899       49.72639       48.05439
C          7.61929       49.44745       49.53742
O          7.42716       50.37468       50.31113
H          8.46394       48.44622       46.67205
H          6.53698       50.25297       47.82986
H          8.32089       50.42265       47.81450
N          7.96407       48.21994       50.01436
C          8.10936       47.91921       51.43255
C          9.37571       47.14028       51.71213
O          9.88687       46.46926       50.82760
C          6.81564       47.28588       51.97275
C          6.30797       46.02729       51.25840
C          6.98094       44.77045       51.72206
N          6.42240       44.06347       52.72995
O          8.00841       44.37674       51.19256
H          8.13012       47.46886       49.34631
H          8.21968       48.87153       51.99499
H          6.03145       48.05610       51.81371
H          6.88252       47.10108       53.06761
H          6.26859       46.12338       50.15878
H          5.24062       45.92153       51.54188
H          5.56603       44.39520       53.19757
H          6.84066       43.18957       53.05373
N          9.98351       47.26152       52.92505
C         11.25396       46.63598       53.24871
C         11.00739       45.68857       54.40241
O         10.81658       46.13529       55.52518
C         12.31336       47.74561       53.53986
C         13.70123       47.19857       53.91072
C         12.46088       48.66474       52.31313
H          9.54437       47.85360       53.64602
H         11.62694       46.04515       52.38623
H         11.95683       48.36366       54.39315
H         14.39058       48.04768       54.12092
H         13.65275       46.57599       54.82642
H         14.13618       46.60710       53.07904
H         12.80773       48.08032       51.43657
H         11.49361       49.14466       52.05580
H         13.19214       49.47644       52.51139
N         10.92865       44.34722       54.17081
C         10.73081       43.35391       55.21896
C         11.93607       43.33565       56.11311
O         12.88595       44.05059       55.85746
C         10.57236       41.94815       54.59110
C          9.32056       41.87125       53.77841
N          9.37155       41.82444       52.42945
O          8.24312       41.85872       54.35176
H         11.01536       44.01474       53.20664
H          9.82376       43.60378       55.81299
H         10.51345       41.14023       55.35277
H         11.45994       41.74352       53.95593
H         10.27335       41.85215       51.93102
H          8.50003       41.79343       51.88478
N         11.97510       42.51845       57.18727
C         13.16290       42.36370       58.00930
C         14.30009       41.76082       57.17583
O         15.40367       42.28582       57.21072
C         12.77566       41.53080       59.24569
C         13.88679       41.35342       60.24422
C         14.57416       42.45975       60.77769
C         14.22470       40.06270       60.67487
C         15.60226       42.26851       61.70436
C         15.24253       39.87531       61.60992
C         15.94257       40.97723       62.12045
O         16.94125       40.80564       63.00836
H         11.12767       41.97497       57.41607
H         13.47708       43.36409       58.37925
H         12.37603       40.54498       58.92076
H         11.95260       42.07264       59.76362
H         14.32617       43.46946       60.47634
H         13.69186       39.19999       60.29468
H         16.13486       43.12530       62.09807
H         15.48491       38.87216       61.93464
H         17.21915       39.92585       63.30056
N         14.07577       40.68945       56.35857
C         15.10063       40.07041       55.50296
C         15.71839       41.00631       54.46478
O         16.81928       40.72441       54.01062
C         14.53972       38.80992       54.80069
C         13.35293       39.09782       53.85210
C         12.69915       37.83686       53.35657
O         11.54032       37.87105       52.97322
O         13.34804       36.65658       53.39189
H         13.12779       40.28975       56.37126
H         15.92290       39.74367       56.17709
H         14.18965       38.12177       55.60022
H         15.34779       38.29736       54.23333
H         13.65781       39.72058       52.98432
H         12.57215       39.65922       54.39675
N         15.06870       42.11745       54.02684
C         15.64096       43.07315       53.08071
C         16.41928       44.12609       53.86084
O         17.50879       44.50206       53.45259
C         14.52662       43.68219       52.18967
C         13.71706       42.57133       51.48331
C         12.63992       43.07710       50.57121
O         12.53776       42.62594       49.44360
O         11.72705       43.95681       51.00617
H         14.13229       42.31711       54.40243
H         16.34263       42.56088       52.38338
H         14.98767       44.35829       51.43724
H         13.83191       44.27937       52.81681
H         13.21864       41.95422       52.25262
H         14.38896       41.91477       50.89857
N         15.94741       44.55405       55.06509
C         16.62211       45.45370       55.97126
H         17.57802       45.83314       55.56251
H         15.94970       46.30626       56.20447
H         16.82472       44.90978       56.92078
H         15.06672       44.17748       55.40239
Ca        10.04475       44.04997       48.64993
O          8.89411       41.51080       49.50293
H          9.42206       40.77851       49.10123
H          7.95014       41.23711       49.39078

Ca 1.0



