%chk=holoCaM.loop1.water2.frame383.chk
%nprocshared=20
%mem=10GB
%nosave
#b3lyp/svp scf=(tight,noincore,xqc) Test 
#IOP(5/87=12) Density=Current Pop=(MK,readradii) iop(6/33=2) iop(6/42=6)

holoCaM.loop1.water2.frame383 

   0  1 
C        101.13011       62.78076      105.78199
C        101.82286       63.06305      107.08499
O        103.03910       62.96833      107.15967
H        100.53592       63.66222      105.46322
H        101.85976       62.52381      104.98607
H        100.44172       61.91760      105.91856
N        101.07984       63.39212      108.17476
C        101.62495       63.57217      109.52016
C        102.30773       62.28914      109.96527
O        101.68660       61.23615      109.93748
C        100.48115       64.01054      110.45689
C        100.73708       63.90893      111.93699
O         99.94102       63.26400      112.59794
O        101.78292       64.47469      112.57986
H        100.05937       63.47499      108.03683
H        102.36722       64.39217      109.52255
H         99.58996       63.37386      110.25500
H        100.20438       65.05600      110.19706
N        103.60724       62.32197      110.38589
C        104.38961       61.13918      110.72557
C        104.51411       60.95699      112.24219
O        105.06763       59.95121      112.65984
C        105.79369       61.29665      110.07024
C        106.66744       60.02993      110.11090
C        108.10621       60.30580      109.65404
C        108.93339       59.01093      109.70548
N        110.34433       59.26601      109.42117
H        104.07764       63.23360      110.45571
H        103.88330       60.23914      110.31445
H        106.31761       62.13420      110.58587
H        105.67735       61.58217      109.00066
H        106.19611       59.25052      109.47377
H        106.75604       59.64166      111.13902
H        108.55671       61.05172      110.34685
H        108.12296       60.72247      108.62351
H        108.52594       58.28716      108.96487
H        108.85478       58.55504      110.71809
H        110.74518       59.89595      110.15421
H        110.86361       58.35830      109.44234
H        110.45464       59.70229      108.47789
N        104.03350       61.87216      113.13486
C        104.24867       61.76450      114.57933
C        102.94901       61.68545      115.36909
O        103.01312       61.61278      116.58885
C        105.01316       63.01051      115.05472
C        106.28451       63.24591      114.29123
O        106.43029       64.27644      113.65239
O        107.26967       62.32965      114.31110
H        103.54825       62.70988      112.79083
H        104.84851       60.86136      114.82476
H        105.25249       62.92316      116.13660
H        104.34732       63.88180      114.91299
N        101.73387       61.73196      114.76089
C        100.48134       61.79427      115.49157
C        100.37179       63.06790      116.30809
O        100.00329       63.00248      117.47158
H        101.67489       61.75589      113.73436
H        100.34165       60.89028      116.12325
H         99.65377       61.81302      114.75033
N        100.65493       64.27124      115.73307
C        100.42825       65.57254      116.35014
C         99.45791       66.41490      115.50458
O         99.20240       67.55359      115.86956
C        101.76851       66.30030      116.61500
C        102.60450       66.58623      115.40080
O        102.16634       67.26903      114.49560
O        103.87824       66.16155      115.34434
H        101.03109       64.26903      114.78181
H         99.95630       65.44806      117.34957
H        102.37213       65.68826      117.32060
H        101.55230       67.26852      117.11587
N         98.82761       65.89758      114.40386
C         97.80502       66.59522      113.63753
C         98.29512       67.67642      112.69057
O         97.43775       68.26448      112.04351
H         98.97262       64.91451      114.15234
H         97.05079       67.01266      114.34024
H         97.28162       65.84883      113.00128
N         99.61010       68.01620      112.54172
C        100.06091       69.10963      111.67334
C        101.15896       68.64761      110.70442
O        101.66347       67.54039      110.85217
C        100.49435       70.28302      112.59230
C        100.85756       71.57358      111.85810
O         99.42926       70.58631      113.46152
H        100.30988       67.52847      113.10854
H         99.20775       69.46363      111.05293
H        101.39037       69.96763      113.17866
H         99.66919       70.24736      114.36360
H        100.00586       71.90868      111.22625
H        101.07621       72.36949      112.60062
H        101.76931       71.45075      111.24352
N        101.53446       69.43322      109.64846
C        102.53145       69.07206      108.63951
C        103.67277       70.09497      108.59218
O        103.42618       71.28581      108.45506
C        101.81737       68.85360      107.26533
C        101.03579       67.50570      107.34269
C        102.80452       68.83551      106.08347
C        100.28437       67.10665      106.07352
H        101.03951       70.32556      109.50086
H        103.00217       68.11269      108.89019
H        101.12411       69.70215      107.07530
H        100.29823       67.55705      108.17090
H        101.74804       66.67928      107.57119
H        103.50144       67.99190      106.17313
H        102.26879       68.74601      105.11807
H        103.37679       69.78413      106.02274
H         99.54104       67.88260      105.80207
H        100.98161       66.93552      105.22743
H         99.75700       66.14536      106.25479
N        104.96800       69.64860      108.62542
C        106.17887       70.47065      108.53224
C        106.87770       70.20565      107.19215
O        106.24506       69.62525      106.32640
C        107.10186       70.17751      109.74676
C        106.42457       70.52362      111.08043
O        107.56131       68.84597      109.73289
H        105.11921       68.63112      108.67351
H        105.92959       71.55498      108.55500
H        107.99366       70.83463      109.69765
H        106.84946       68.26162      110.10161
H        106.13241       71.59538      111.09537
H        105.51826       69.90312      111.23142
H        107.12951       70.34069      111.91878
N        108.14500       70.64016      106.91342
C        108.76894       70.50617      105.58911
C        108.88417       69.05438      105.11023
O        108.32533       68.74270      104.06813
C        110.16411       71.19115      105.51929
C        110.10703       72.69524      105.80156
O        111.06387       70.59400      106.41844
H        108.67013       71.12698      107.65186
H        108.12017       71.04428      104.85997
H        110.52687       71.06780      104.46892
H        111.94450       70.53808      105.96219
H        111.11964       73.13253      105.66769
H        109.41103       73.19593      105.09699
H        109.78304       72.90207      106.84174
N        109.61931       68.12425      105.79171
C        109.82986       66.74438      105.32310
C        108.56943       65.89836      105.30800
O        108.64243       64.75482      104.87595
C        110.87652       66.04622      106.21054
C        112.27453       66.63227      105.95982
C        113.33459       66.05977      106.90542
C        113.16937       66.59619      108.33686
N        114.22775       66.09261      109.20813
H        110.08046       68.41906      106.66328
H        110.21431       66.76909      104.27871
H        110.93866       64.96092      105.96962
H        110.54968       66.14077      107.26702
H        112.27878       67.73943      106.04632
H        112.55512       66.37350      104.91430
H        114.32985       66.38497      106.53330
H        113.30338       64.94774      106.88791
H        112.18624       66.30397      108.76102
H        113.21962       67.70834      108.31093
H        114.15976       65.05204      109.28509
H        115.16490       66.36110      108.82919
H        114.11403       66.51392      110.15825
N        107.37733       66.38507      105.72440
C        106.14062       65.63754      105.65484
C        105.40556       66.05444      104.39282
O        105.05102       65.18875      103.60585
C        105.33962       65.89124      106.93002
C        106.07615       65.42956      108.20542
C        105.21688       65.66441      109.41142
O        104.09314       66.11206      109.28144
O        105.61971       65.34298      110.64744
H        107.31213       67.35139      106.06125
H        106.32203       64.54061      105.59298
H        104.36530       65.36104      106.84967
H        105.15699       66.97664      107.03152
H        107.03035       65.98647      108.32527
H        106.29685       64.34236      108.14049
N        105.22284       67.37136      104.09405
C        104.64927       67.85366      102.85586
H        103.78231       68.50846      103.07725
H        105.41547       68.45336      102.31734
H        104.32193       67.02938      102.19049
H        105.55457       68.08256      104.74843
Ca       103.76035       65.30762      111.91279
O        104.04599       69.08973      113.34147
H        104.09897       70.07063      113.22266
H        104.23748       68.94899      114.30256
O        106.73579       67.52957      112.92932
H        107.68541       67.38456      112.68994
H        106.74350       68.35237      113.47992

Ca 1.0



