%chk=holoCaM.loop3.water2.frame426.chk
%nprocshared=20
%mem=10GB
%nosave
#b3lyp/svp scf=(tight,noincore,xqc) Test 
#IOP(5/87=12) Density=Current Pop=(MK,readradii) iop(6/33=2) iop(6/42=6)

holoCaM.loop3.water2.frame426 

   0  1 
C         -2.86146       88.36091       65.37354
C         -3.59369       87.61698       66.44401
O         -4.79834       87.43860       66.31869
H         -2.07946       87.70701       64.93581
H         -3.56225       88.66842       64.56657
H         -2.39378       89.26811       65.80684
N         -2.92674       87.13250       67.53298
C         -3.61988       86.38456       68.56861
C         -4.64478       87.28242       69.24444
O         -4.26793       88.28773       69.83093
C         -2.64685       85.75593       69.59843
C         -3.38642       84.79791       70.49930
O         -4.69073       84.59811       70.26941
O         -2.81816       84.19748       71.38941
H         -1.90695       87.27077       67.59969
H         -4.13013       85.54941       68.05426
H         -2.15507       86.55340       70.19588
H         -1.86456       85.17549       69.06274
N         -5.97432       87.00536       69.12867
C         -7.01145       87.93493       69.56226
C         -7.09324       88.08805       71.07993
O         -7.66917       89.06984       71.52674
C         -8.35591       87.51118       68.92663
C         -9.46716       88.56906       69.00273
C        -10.74506       88.14684       68.24734
C        -10.53795       87.98070       66.72670
N        -11.79666       87.66119       66.05442
H         -6.25091       86.16161       68.60121
H         -6.74000       88.92121       69.12310
H         -8.70640       86.55622       69.37208
H         -8.13693       87.33780       67.85435
H         -9.09944       89.52627       68.57277
H         -9.73539       88.74121       70.06575
H        -11.50463       88.94301       68.40594
H        -11.13890       87.20059       68.67785
H         -9.81815       87.16333       66.51285
H        -10.13097       88.92672       66.30516
H        -12.49366       88.42509       66.20920
H        -11.62076       87.56843       65.02736
H        -12.17549       86.75515       66.41419
N         -6.58768       87.14763       71.93421
C         -6.67371       87.25523       73.39143
C         -5.32301       87.04244       74.08824
O         -5.30101       87.04114       75.31169
C         -7.80462       86.34377       73.91309
C         -7.65207       84.89887       73.57132
O         -6.62795       84.19363       74.07040
O         -8.48633       84.34677       72.87255
H         -6.18860       86.28354       71.54349
H         -7.00025       88.27587       73.68894
H         -8.75696       86.70581       73.46485
H         -7.89859       86.44165       75.01593
N         -4.14691       86.95381       73.39354
C         -2.83725       86.93143       74.03849
C         -2.44398       85.62246       74.69833
O         -1.36225       85.58230       75.26867
H         -4.15530       87.03476       72.36820
H         -2.78723       87.75842       74.78126
H         -2.06067       87.13248       73.26938
N         -3.22890       84.50867       74.65994
C         -2.85491       83.24975       75.31023
C         -1.76099       82.46762       74.56433
O         -1.45917       81.35870       74.98220
C         -4.12075       82.39619       75.57215
C         -4.71890       81.69835       74.37346
N         -5.08028       80.39710       74.46464
O         -4.91929       82.30651       73.33442
H         -4.14931       84.57680       74.21011
H         -2.49203       83.49402       76.33464
H         -4.88913       83.06329       76.02035
H         -3.88670       81.62861       76.34255
H         -4.94743       79.86835       75.33945
H         -5.52061       79.91641       73.66916
N         -1.10298       82.98157       73.47852
C         -0.06591       82.27068       72.74215
C         -0.59881       81.28316       71.71222
O          0.21871       80.63596       71.07300
H         -1.27249       83.95003       73.19199
H          0.62342       81.77164       73.45907
H          0.53796       83.01269       72.17639
N         -1.93413       81.10016       71.49430
C         -2.48906       80.09346       70.58657
C         -3.53520       80.68447       69.65367
O         -4.42341       81.37129       70.14102
C         -3.18811       79.03216       71.44859
C         -2.20750       78.29319       72.32212
C         -2.22733       78.45530       73.71535
C         -1.26512       77.42655       71.74663
C         -1.32334       77.76369       74.52243
C         -0.36614       76.72632       72.55535
C         -0.39356       76.89283       73.94795
O          0.46401       76.22159       74.74157
H         -2.60650       81.63867       72.05778
H         -1.70213       79.58704       69.98567
H         -3.72165       78.29110       70.81412
H         -3.94899       79.54755       72.06826
H         -2.93257       79.12184       74.18055
H         -1.23584       77.28433       70.67347
H         -1.34985       77.90396       75.59575
H          0.34791       76.05368       72.09852
H          1.11413       75.60027       74.38473
N         -3.55644       80.37395       68.31802
C         -4.65321       80.77104       67.43176
C         -5.38491       79.55698       66.86008
O         -4.79175       78.74587       66.16388
C         -4.20652       81.74560       66.29895
C         -3.15819       81.16093       65.31614
C         -3.73177       83.06081       66.92831
C         -2.86493       82.08795       64.13501
H         -2.80377       79.78682       67.92790
H         -5.40717       81.34357       68.01097
H         -5.12084       81.98361       65.70890
H         -3.54891       80.23202       64.86154
H         -2.21170       80.92500       65.84557
H         -4.53037       83.44090       67.59733
H         -2.80394       82.91032       67.51857
H         -3.55653       83.84101       66.16064
H         -2.18138       81.57980       63.42294
H         -3.80750       82.32921       63.60598
H         -2.38045       83.02946       64.45851
N         -6.72195       79.41371       67.08165
C         -7.57507       78.43429       66.41567
C         -7.62816       78.70861       64.91564
O         -7.01731       79.65919       64.45652
C         -9.00567       78.52676       66.99846
O         -9.53398       79.80913       66.78602
H         -7.17310       80.06697       67.72294
H         -7.18179       77.41247       66.60452
H         -8.95971       78.32206       68.09143
H         -9.66907       77.77236       66.52376
H        -10.42285       79.82764       67.22629
N         -8.36851       77.91954       64.08977
C         -8.54489       78.19724       62.66603
C         -9.28568       79.51021       62.45584
O         -8.82925       80.33149       61.67391
C         -9.32866       77.06225       62.00139
H         -8.84048       77.09686       64.49416
H         -7.55222       78.23490       62.16223
H         -9.43443       77.26176       60.91297
H         -8.77629       76.10609       62.12520
H        -10.33852       76.95563       62.45016
N        -10.43590       79.77277       63.14257
C        -11.22415       80.99730       62.99485
C        -10.38173       82.24071       63.21570
O        -10.35313       83.09878       62.34469
C        -12.39757       80.98434       63.98332
H        -10.75908       79.06392       63.81970
H        -11.64839       81.03450       61.96666
H        -13.04148       80.09879       63.79588
H        -12.03095       80.93753       65.03178
H        -13.01574       81.89912       63.86119
N         -9.63329       82.37702       64.34427
C         -8.73096       83.50087       64.59768
C         -7.76948       83.67119       63.42720
O         -7.68076       84.77195       62.90123
C         -7.99595       83.28979       65.94412
C         -8.97735       83.43837       67.13515
C         -8.31958       83.12606       68.44688
O         -8.26245       84.02415       69.44000
O         -7.82781       82.03283       68.63353
H         -9.66741       81.60723       65.02645
H         -9.30980       84.44784       64.68294
H         -7.19088       84.04823       66.06475
H         -7.52225       82.28191       65.94258
H         -9.83715       82.74887       67.02033
H         -9.36136       84.48218       67.15658
N         -7.10179       82.60739       62.90274
C         -6.28964       82.67788       61.70232
H         -5.27337       82.29422       61.90747
H         -6.74536       82.03872       60.91593
H         -6.20797       83.70971       61.30216
H         -7.22776       81.68681       63.33070
Ca        -6.58212       83.61505       70.87698
O         -8.23143       81.33039       73.03258
H         -8.51934       80.39420       72.89125
H         -9.07800       81.82857       73.15204
O         -6.71062       79.88571       70.81280
H         -6.53718       79.27944       70.05051
H         -6.58299       79.31656       71.61182

Ca 1.0



