%chk=holoCaM.loop3.water2.frame396.chk
%nprocshared=20
%mem=10GB
%nosave
#b3lyp/svp scf=(tight,noincore,xqc) Test 
#IOP(5/87=12) Density=Current Pop=(MK,readradii) iop(6/33=2) iop(6/42=6)

holoCaM.loop3.water2.frame396 

   0  1 
C         62.27331       43.89055       83.55983
C         60.92478       44.43156       83.91750
O         60.20985       43.78132       84.66775
H         62.88298       43.78084       84.48057
H         62.15134       42.89826       83.07796
H         62.80452       44.56492       82.85620
N         60.50773       45.63295       83.42967
C         59.20216       46.18120       83.75385
C         58.12887       45.30701       83.13916
O         58.12537       45.13488       81.92771
C         59.09846       47.64251       83.27771
C         57.87462       48.31957       83.81584
O         57.67231       49.49419       83.56579
O         57.01443       47.65157       84.60415
H         61.14763       46.17974       82.83266
H         59.10086       46.18640       84.85858
H         59.11370       47.69255       82.16745
H         59.97258       48.20889       83.66630
N         57.21736       44.67626       83.93166
C         56.26603       43.70116       83.41210
C         55.35578       44.36443       82.39010
O         55.42534       44.00977       81.22148
C         55.53321       43.03000       84.59624
C         54.76819       41.75039       84.24856
C         54.29833       41.06784       85.54746
C         53.63790       39.71188       85.27755
N         53.30624       39.03636       86.53343
H         57.25084       44.85119       84.94833
H         56.86316       42.90558       82.91218
H         54.85934       43.74190       85.10134
H         56.32163       42.73225       85.32316
H         55.46284       41.05812       83.72509
H         53.90826       41.97547       83.58191
H         53.58978       41.72959       86.09326
H         55.18420       40.89164       86.19837
H         54.33981       39.06850       84.70156
H         52.71561       39.85957       84.67447
H         52.85387       38.11812       86.32094
H         54.17774       38.85794       87.08517
H         52.64762       39.61945       87.09881
N         54.51860       45.37697       82.75122
C         53.74283       46.14910       81.78558
C         54.63785       46.97211       80.85802
O         54.55170       46.77994       79.65293
C         52.65575       47.04626       82.45083
C         53.04890       47.98519       83.57665
O         52.22378       48.78165       83.99227
O         54.25789       47.91301       84.17022
H         54.44136       45.59879       83.74861
H         53.16591       45.43919       81.14802
H         51.85867       46.38944       82.86019
H         52.19215       47.64558       81.63426
N         55.48049       47.93277       81.33729
C         56.24614       48.83987       80.49759
C         55.83994       50.29530       80.69820
O         56.39804       51.13637       80.00785
H         55.58128       48.05411       82.34472
H         56.10456       48.60181       79.42241
H         57.32652       48.72370       80.72851
N         54.87267       50.68103       81.59173
C         54.40286       52.06608       81.71803
C         55.46691       53.04389       82.21727
O         55.18246       54.23261       82.26502
C         53.14073       52.14061       82.62078
C         53.42716       51.96005       84.09255
N         53.03193       52.88104       85.00335
O         54.01426       50.96595       84.46881
H         54.39804       49.96210       82.15104
H         54.08122       52.38084       80.70162
H         52.42349       51.35702       82.29202
H         52.64472       53.12348       82.47664
H         52.51421       53.72405       84.71746
H         53.22837       52.74089       86.00644
N         56.69598       52.61962       82.62729
C         57.74071       53.49162       83.12800
C         58.12920       53.14104       84.54725
O         59.10275       53.70851       85.02275
H         56.92691       51.62161       82.60016
H         57.44841       54.56427       83.09881
H         58.62916       53.36298       82.47389
N         57.39838       52.26698       85.30825
C         57.71560       51.96797       86.69691
C         57.69499       50.43043       86.93159
O         56.50213       50.00094       87.53901
C         56.71577       52.72783       87.59552
C         56.91614       54.21808       87.45136
C         55.97566       55.01386       86.77598
C         58.06945       54.82047       87.98226
C         56.19295       56.38827       86.62789
C         58.27818       56.19441       87.84410
C         57.34128       56.98344       87.16271
O         57.53442       58.30978       87.01588
H         56.53271       51.85791       84.93014
H         58.73760       52.33643       86.93415
H         56.83752       52.45574       88.66629
H         55.68596       52.44023       87.28488
H         55.08587       54.57091       86.34769
H         58.80483       54.22470       88.50889
H         55.46917       56.99152       86.09450
H         59.16969       56.64273       88.26443
H         58.31402       58.75846       87.37390
N         58.89191       49.97974       87.66802
C         58.83224       48.62247       88.24724
C         58.31798       48.71249       89.68144
O         58.88109       49.47162       90.45974
C         60.25255       47.97213       88.24190
C         60.89454       48.04660       86.83241
C         60.15801       46.50482       88.72313
C         62.32206       47.49698       86.76386
H         59.23903       50.68262       88.36148
H         58.18075       47.97023       87.61852
H         60.90795       48.54079       88.93791
H         60.94647       49.10724       86.50831
H         60.26825       47.50163       86.10900
H         59.71369       46.44556       89.73458
H         59.53133       45.90381       88.02768
H         61.15633       46.03182       88.80003
H         62.97788       48.04246       87.47486
H         62.35696       46.41136       86.98512
H         62.71963       47.63481       85.73616
N         57.30221       47.92184       90.12066
C         56.82900       47.93487       91.50022
C         57.40025       46.75760       92.26633
O         58.11873       45.95187       91.69194
C         55.29055       47.94560       91.52906
O         54.77428       46.76348       90.97259
H         56.91254       47.22521       89.47823
H         57.18599       48.85005       92.02062
H         54.91876       48.84650       90.99023
H         54.91413       48.03004       92.56915
H         54.30787       47.00655       90.13207
N         57.13756       46.61317       93.59402
C         57.65578       45.51456       94.40273
C         57.21120       44.18106       93.84139
O         58.04205       43.30191       93.66925
C         57.18318       45.65512       95.85186
H         56.53890       47.31923       94.05057
H         58.76880       45.55421       94.41643
H         57.54013       46.62106       96.26963
H         56.07478       45.62451       95.91368
H         57.60437       44.83313       96.46951
N         55.90996       43.98366       93.49224
C         55.42162       42.75423       92.87979
C         56.15316       42.45310       91.58101
O         56.68870       41.36174       91.44283
C         53.91640       42.87230       92.60172
H         55.24468       44.75803       93.64345
H         55.56590       41.90896       93.58900
H         53.70402       43.71096       91.90361
H         53.53250       41.93049       92.15492
H         53.36888       43.05854       93.55013
N         56.20366       43.37651       90.57839
C         56.81420       43.11266       89.27242
C         58.32338       42.88484       89.35123
O         58.89733       42.49128       88.34518
C         56.55007       44.28487       88.29886
C         55.04942       44.55694       88.07750
C         54.83056       45.79208       87.25390
O         54.17530       45.74642       86.22897
O         55.30586       46.97459       87.67697
H         55.75632       44.28693       90.75254
H         56.34020       42.19578       88.85586
H         57.02005       44.07522       87.31348
H         57.03995       45.18342       88.71962
H         54.53169       44.73424       89.03769
H         54.57872       43.67383       87.59476
N         59.03689       43.13759       90.48601
C         60.46808       42.94605       90.60207
H         60.95002       43.91980       90.83228
H         60.67539       42.24124       91.43476
H         60.92061       42.53838       89.67479
H         58.56233       43.50708       91.31349
Ca        55.18030       49.10526       85.88999
O         51.92508       48.22610       86.88029
H         51.80692       47.52866       86.18878
H         51.13363       48.12670       87.46581
O         53.68196       49.95202       88.55016
H         54.32595       50.39296       89.15891
H         53.37517       49.15289       89.04755

Ca 1.0



