%chk=holoCaM-CaMKII.loop4.water2.frame250.chk
%nprocshared=20
%mem=10GB
%nosave
#b3lyp/svp scf=(tight,noincore,xqc) Test 
#IOP(5/87=12) Density=Current Pop=(MK,readradii) iop(6/33=2) iop(6/42=6)

holoCaM-CaMKII.loop4.water2.frame250 

   -3  1 
C         87.55483       -0.61827       66.70119
C         87.01119       -0.16695       68.02695
O         87.70797        0.52667       68.75109
H         88.47689       -1.21489       66.86264
H         86.82331       -1.25418       66.15712
H         87.79061        0.26310       66.07043
N         85.75757       -0.52826       68.40802
C         85.15804       -0.16854       69.68860
C         85.93670       -0.79643       70.84124
O         86.22521       -1.98383       70.78834
C         83.69014       -0.62408       69.68916
C         83.00299       -0.29388       70.97323
O         82.48818       -1.18684       71.61762
O         82.94894        0.97382       71.42214
H         85.19871       -1.09160       67.74715
H         85.14773        0.93994       69.79505
H         83.63003       -1.72061       69.50915
H         83.15319       -0.10482       68.86495
N         86.27911       -0.04751       71.93185
C         87.08615       -0.53514       73.04676
C         86.22479       -0.66829       74.29579
O         86.10831       -1.78048       74.79337
C         88.31656        0.40291       73.27168
C         89.19603        0.44308       71.99336
C         89.13816       -0.05062       74.49608
C         90.38643        1.40329       72.07279
H         85.94193        0.91955       71.98073
H         87.47639       -1.55266       72.81648
H         87.94740        1.43292       73.47418
H         88.57268        0.78457       71.14302
H         89.57399       -0.57688       71.76230
H         88.51372       -0.04761       75.41349
H         89.54348       -1.07249       74.34056
H         89.97523        0.64670       74.69922
H         90.04189        2.43509       72.28728
H         91.11432        1.09150       72.84787
H         90.92045        1.40564       71.09884
N         85.61075        0.40474       74.88120
C         84.83793        0.27536       76.12137
C         83.56217       -0.56006       75.97536
O         82.89876       -0.77912       76.97996
C         84.50980        1.65664       76.73637
C         83.55709        2.51377       75.94672
O         83.10561        2.14522       74.87464
O         83.17753        3.70218       76.45225
H         85.75189        1.33962       74.47211
H         85.49340       -0.23296       76.86405
H         85.45621        2.21984       76.88848
H         84.05590        1.49202       77.73829
N         83.16320       -1.07982       74.77994
C         81.99569       -1.92853       74.63404
C         80.70097       -1.16746       74.76690
O         79.86845       -1.56340       75.56961
H         83.72328       -0.91957       73.93358
H         82.05194       -2.78023       75.34651
H         81.99653       -2.37258       73.62096
N         80.44471       -0.09125       73.96457
C         79.15186        0.59256       73.92779
C         78.49778        0.54402       72.54464
O         77.33748        0.92225       72.45236
C         79.26586        2.03724       74.46832
C         80.17870        2.97282       73.71591
O         80.31280        4.24160       74.14492
O         80.80681        2.60799       72.73825
H         81.19745        0.23764       73.34658
H         78.44423        0.06544       74.60395
H         79.63069        1.98550       75.51621
H         78.25083        2.49026       74.48281
N         79.15538        0.10225       71.43002
C         78.53466       -0.02464       70.12067
C         79.03736        0.99756       69.12422
O         78.64720        0.90386       67.97045
H         80.14560       -0.16047       71.48362
H         77.43112        0.09654       70.17392
H         78.73690       -1.05020       69.74284
N         79.82848        2.04623       69.50162
C         80.20682        3.12405       68.59464
C         81.70722        3.35177       68.58275
O         82.42935        2.80984       69.40279
C         79.51030        4.42524       69.05638
C         77.97988        4.32685       68.95309
C         77.30863        5.57153       69.47289
N         77.40353        5.91322       70.77990
O         76.65494        6.26837       68.71127
H         80.10584        2.14112       70.48333
H         79.89422        2.89107       67.55382
H         79.83917        5.28396       68.43073
H         79.80939        4.63225       70.10768
H         77.59566        3.46343       69.53591
H         77.71379        4.17521       67.88367
H         77.93197        5.32708       71.44266
H         76.93265        6.75850       71.13558
N         82.22539        4.19656       67.64894
C         83.61135        4.63802       67.59832
C         83.59369        6.15062       67.68154
O         82.95512        6.78331       66.85269
C         84.29956        4.13292       66.29796
C         85.66910        4.80006       66.06220
C         84.50279        2.60919       66.37236
H         81.58507        4.58125       66.93796
H         84.19758        4.24086       68.44967
H         83.65807        4.37808       65.42321
H         86.12914        4.41376       65.12783
H         85.55902        5.89810       65.93944
H         86.36230        4.60258       66.90322
H         83.53584        2.08308       66.50712
H         84.97803        2.23455       65.44082
H         85.16791        2.34991       67.22714
N         84.31770        6.79408       68.64096
C         84.41071        8.24725       68.72123
C         85.78107        8.67569       68.23811
O         86.56726        7.82045       67.85718
C         84.04841        8.78382       70.13162
C         85.06370        8.54412       71.23005
N         85.32623        7.31061       71.71559
O         85.63445        9.50653       71.72134
H         84.90179        6.22941       69.26741
H         83.67807        8.70832       68.02423
H         83.05605        8.39562       70.44297
H         83.93618        9.88554       70.03344
H         84.82870        6.47951       71.37841
H         86.01642        7.19246       72.47180
N         86.13181        9.99120       68.18445
C         87.41738       10.42224       67.64581
C         88.57858        9.79365       68.39785
O         89.59484        9.50333       67.78137
C         87.54590       11.95681       67.68131
C         88.78201       12.40326       66.93859
C         88.88007       12.18963       65.55239
C         89.84708       13.01759       67.61575
C         90.02554       12.57784       64.85609
C         90.99629       13.40147       66.91659
C         91.08858       13.18143       65.53354
O         92.19071       13.54289       64.84690
H         85.45984       10.70162       68.50896
H         87.45320       10.08405       66.58650
H         87.57131       12.28423       68.74495
H         86.66333       12.43194       67.20095
H         88.06830       11.72151       65.00934
H         89.79494       13.18685       68.68404
H         90.08646       12.40513       63.78888
H         91.81510       13.86588       67.45083
H         92.95150       13.95818       65.27677
N         88.48765        9.54622       69.73374
C         89.54734        8.91171       70.50356
C         89.82345        7.51812       69.95174
O         90.95143        7.23562       69.57355
C         89.13093        8.83064       71.99618
C         90.27601        8.43052       72.93885
C         91.30239        9.52532       73.04272
O         90.94261       10.74201       73.49848
O         92.46366        9.31731       72.73242
H         87.62464        9.82355       70.22087
H         90.45643        9.54887       70.42674
H         88.29903        8.10410       72.10605
H         88.74370        9.81623       72.33655
H         90.73763        7.47717       72.60173
H         89.86121        8.27043       73.95704
N         88.81714        6.59660       69.87912
C         89.00870        5.22466       69.40764
C         89.31680        5.13628       67.91451
O         89.61070        4.04140       67.45246
C         87.74871        4.37351       69.68631
C         87.40069        4.29104       71.17979
C         86.18695        3.39890       71.40357
O         85.85825        3.36618       72.76298
O         85.06867        3.88605       70.72194
H         87.88351        6.88105       70.20866
H         89.85714        4.77927       69.97362
H         87.91527        3.33743       69.31536
H         86.89030        4.80982       69.13373
H         87.19376        5.29386       71.59784
H         88.25754        3.85533       71.73180
N         89.23891        6.21423       67.08586
C         89.49515        6.11604       65.66538
H         90.53802        5.77871       65.48870
H         88.78660        5.39737       65.20045
H         89.35445        7.10877       65.18634
H         88.96786        7.13079       67.45360
Ca        83.66487        3.89761       72.49512
O         84.70913        6.05227       74.52005
H         84.07397        6.78937       74.33884
H         84.12992        5.27580       74.71443
O         81.92539        6.17769       71.57009
H         81.05643        5.87989       71.93814
H         82.39300        6.58506       72.34204

Ca 1.0



