%chk=holoCaM.loop4.water3.frame427.chk
%nprocshared=20
%mem=10GB
%nosave
#b3lyp/svp scf=(tight,noincore,xqc) Test 
#IOP(5/87=12) Density=Current Pop=(MK,readradii) iop(6/33=2) iop(6/42=6)

holoCaM.loop4.water3.frame427 

   -3  1 
C          8.40853       80.17871       59.84063
C          7.89489       79.21304       60.85930
O          6.92539       78.52304       60.57456
H          9.45452       79.91303       59.58143
H          7.79254       80.12649       58.91589
H          8.36940       81.20995       60.24394
N          8.51180       79.08379       62.07147
C          8.11010       78.04186       63.00766
C          8.38986       78.43181       64.46129
O          9.20028       79.31067       64.71972
C          8.86101       76.74830       62.60788
C          8.26559       75.45873       63.08839
O          8.84263       74.41241       62.84496
O          7.05645       75.41953       63.66870
H          9.35898       79.64211       62.25650
H          7.01192       77.90737       62.89903
H          9.91858       76.83642       62.94109
H          8.86594       76.65253       61.50073
N          7.71144       77.81023       65.46355
C          7.89350       78.03765       66.89070
C          8.26709       76.71364       67.54950
O          9.27526       76.68337       68.24200
C          6.59700       78.67292       67.49455
C          6.43815       80.11419       66.93141
C          6.63853       78.69938       69.03765
C          5.17465       80.85005       67.38107
H          6.98744       77.13902       65.20172
H          8.72454       78.75390       67.08820
H          5.71943       78.05529       67.19960
H          6.41339       80.06982       65.82607
H          7.31809       80.72903       67.22493
H          6.72780       77.67192       69.44725
H          7.48994       79.31073       69.40352
H          5.69426       79.10507       69.45489
H          4.26884       80.27885       67.09126
H          5.17140       81.02877       68.47553
H          5.14283       81.84587       66.88939
N          7.50037       75.58853       67.39412
C          7.75789       74.34041       68.11991
C          8.14982       73.13443       67.26029
O          8.65040       72.18415       67.84696
C          6.55372       73.99457       69.03223
C          5.22805       73.80092       68.33237
O          5.11320       73.94685       67.12948
O          4.13940       73.48203       69.05595
H          6.68272       75.64485       66.77625
H          8.62979       74.49202       68.79279
H          6.41735       74.81665       69.76556
H          6.78409       73.06459       69.59484
N          7.94504       73.05142       65.91249
C          8.32226       71.86463       65.13646
C          7.18903       70.85763       64.95928
O          7.42370       69.80946       64.37616
H          7.44040       73.80716       65.43597
H          9.15542       71.33085       65.64197
H          8.71889       72.18196       64.14989
N          5.94947       71.09390       65.46750
C          4.80878       70.16703       65.45394
C          4.26049       69.75361       64.08283
O          3.31968       68.97022       64.07055
C          3.63969       70.79985       66.24981
C          3.21450       72.14413       65.70513
O          3.90011       72.71962       64.68869
O          2.32080       72.75259       66.26358
H          5.82457       71.97825       65.96651
H          5.11939       69.23717       65.97906
H          3.96850       70.95868       67.30077
H          2.77054       70.10867       66.27474
N          4.75893       70.20450       62.90033
C          4.20970       69.79567       61.61205
C          2.91237       70.49699       61.22104
O          2.45111       70.24834       60.11516
H          5.58491       70.81176       62.89394
H          4.09446       68.68904       61.58392
H          4.94623       70.06805       60.82704
N          2.29321       71.41100       62.02446
C          1.14048       72.21994       61.62211
C          1.50489       73.69964       61.67849
O          2.63464       74.02074       62.03017
C         -0.06003       71.94283       62.54949
C         -0.59578       70.51066       62.40755
C         -1.83436       70.27264       63.24314
N         -2.46348       69.07705       63.18873
O         -2.28417       71.15476       63.96158
H          2.67317       71.58688       62.95995
H          0.83706       71.99655       60.57489
H         -0.89431       72.62263       62.27611
H          0.22472       72.14701       63.60560
H          0.18819       69.78090       62.70171
H         -0.86503       70.33690       61.34257
H         -2.10785       68.32312       62.58337
H         -3.31391       68.90820       63.74665
N          0.59473       74.66416       61.34345
C          0.89028       76.09234       61.38907
C          0.00627       76.77571       62.42171
O         -1.19846       76.86442       62.22133
C          0.72200       76.72251       59.97522
C          0.91114       78.24844       59.98511
C          1.72218       76.10712       58.98531
H         -0.35032       74.38290       61.03937
H          1.93945       76.24690       61.69689
H         -0.30881       76.51582       59.60986
H          0.14731       78.73286       60.62330
H          1.92268       78.51769       60.35013
H          0.77871       78.66082       58.96241
H          1.57628       76.54220       57.97334
H          2.76489       76.31294       59.31036
H          1.58098       75.00949       58.90896
N          0.55753       77.29938       63.55665
C         -0.19697       78.07946       64.53744
C         -0.54790       79.43974       63.95002
O         -0.06684       79.77719       62.88125
C          0.67263       78.25679       65.81194
C          0.02363       78.90924       67.00492
N         -1.06823       78.36218       67.58592
O          0.52119       79.91482       67.48663
H          1.55957       77.13323       63.73088
H         -1.11545       77.51175       64.80369
H          1.60164       78.80780       65.54393
H          0.95079       77.25886       66.16510
H         -1.48603       77.49691       67.21613
H         -1.48603       78.79738       68.42125
N         -1.37857       80.28501       64.61047
C         -1.65632       81.65202       64.17235
C         -0.39110       82.50007       64.22097
O         -0.10593       83.19870       63.25814
C         -2.82107       82.25753       65.00121
C         -2.60186       82.26149       66.49819
C         -3.22913       81.28732       67.29427
C         -1.77363       83.21462       67.11327
C         -2.99875       81.24086       68.66960
C         -1.54463       83.16721       68.49109
C         -2.14962       82.17244       69.27219
O         -1.92168       82.10040       70.59838
H         -1.82777       79.93467       65.46549
H         -2.03073       81.63708       63.12311
H         -3.70172       81.61576       64.77626
H         -3.08426       83.27885       64.64994
H         -3.87639       80.54347       66.84567
H         -1.29478       83.98782       66.52601
H         -3.47206       80.46975       69.26380
H         -0.89043       83.89854       68.94801
H         -1.32664       82.71435       71.05124
N          0.42873       82.46332       65.31301
C          1.62084       83.29493       65.48347
C          2.73027       82.96942       64.47470
O          3.73154       83.67003       64.45075
C          2.12391       83.14567       66.94476
C          3.10928       84.22858       67.41577
C          2.47062       85.59138       67.39785
O          2.95300       86.48956       66.72743
O          1.35985       85.82642       68.12428
H          0.15646       81.84318       66.08418
H          1.29252       84.34655       65.33632
H          2.56769       82.13609       67.07529
H          1.25224       83.20729       67.63160
H          4.03317       84.22132       66.80437
H          3.40303       84.00512       68.46380
N          2.59949       81.94808       63.58157
C          3.55067       81.64504       62.52436
C          2.99695       82.21141       61.23100
O          3.67115       83.01158       60.59816
C          3.72180       80.11926       62.40113
C          4.27326       79.45567       63.67234
C          4.23829       77.95283       63.56725
O          4.58888       77.19039       64.61437
O          3.85743       77.40748       62.54790
H          1.74829       81.37956       63.59099
H          4.54322       82.11083       62.72013
H          4.39176       79.87952       61.54558
H          2.72248       79.67962       62.19872
H          3.64472       79.74049       64.54125
H          5.31298       79.79768       63.85043
N          1.74738       81.86760       60.80395
C          1.11635       82.40764       59.61987
H          0.19081       82.94494       59.91919
H          1.77335       83.11558       59.07482
H          0.83994       81.57514       58.94025
H          1.18893       81.20672       61.35603
Ca         4.34130       74.93601       64.49021
O          2.45654       75.51689       66.25737
H          2.51258       75.11567       67.15814
H          1.66097       75.10533       65.83161
O          5.60250       73.24526       62.15907
H          6.53112       72.95956       62.34779
H          5.38653       72.83068       61.28639
O          5.37826       75.77924       60.85595
H          5.04126       76.61688       60.45180
H          5.57773       75.19740       60.08155

Ca 1.0



