%chk=holoCaM.loop1.water2.frame215.chk
%nprocshared=20
%mem=10GB
%nosave
#b3lyp/svp scf=(tight,noincore,xqc) Test 
#IOP(5/87=12) Density=Current Pop=(MK,readradii) iop(6/33=2) iop(6/42=6)

holoCaM.loop1.water2.frame215 

   0  1 
C         33.43309       61.11166      120.46272
C         33.28244       60.34407      121.74183
O         32.93987       60.93353      122.75543
H         34.47423       61.01098      120.09066
H         32.73330       60.70661      119.70146
H         33.20957       62.18852      120.61778
N         33.51474       59.00233      121.75291
C         33.37724       58.15927      122.93871
C         34.36861       58.57656      124.02258
O         35.53749       58.22572      123.94689
C         33.52621       56.68107      122.50319
C         33.61895       55.62017      123.56873
O         34.55841       54.84493      123.52481
O         32.66210       55.43001      124.49919
H         33.77140       58.56230      120.85467
H         32.34835       58.30131      123.31780
H         34.44888       56.59257      121.88641
H         32.66382       56.43696      121.84404
N         33.96036       59.41075      125.02588
C         34.83969       59.94607      126.05970
C         35.22567       58.92459      127.11996
O         36.16609       59.19473      127.85381
C         34.18974       61.17488      126.76053
C         32.93684       60.83195      127.60061
C         32.33404       62.07588      128.26609
C         31.10602       61.70180      129.11272
N         30.53553       62.88026      129.76534
H         33.00564       59.77183      124.97881
H         35.75671       60.31437      125.54793
H         33.91958       61.92567      125.98514
H         34.94219       61.64102      127.43393
H         33.21214       60.10945      128.39711
H         32.16098       60.36824      126.96419
H         32.03141       62.80583      127.48356
H         33.09805       62.54781      128.92169
H         31.40315       60.96393      129.89152
H         30.33284       61.23224      128.46376
H         30.22285       63.57424      129.04814
H         29.70918       62.58918      130.33659
H         31.24359       63.31919      130.39796
N         34.47146       57.80823      127.35269
C         34.71008       56.90326      128.47921
C         34.97842       55.46537      128.04565
O         35.11128       54.61265      128.91296
C         33.55603       57.01569      129.50673
C         32.18818       56.59274      129.04540
O         31.15595       56.67215      129.90620
O         31.99472       56.17578      127.91744
H         33.65049       57.63142      126.75685
H         35.61554       57.21753      129.04263
H         33.49017       58.07484      129.83879
H         33.81403       56.40450      130.39852
N         35.16312       55.13063      126.73664
C         35.57700       53.80149      126.30904
C         34.47934       52.75305      126.28118
O         34.77685       51.64696      125.85200
H         35.13917       55.86832      126.01885
H         36.43430       53.45879      126.92768
H         35.95723       53.87784      125.27067
N         33.19767       52.99754      126.68522
C         32.14204       51.98268      126.60451
C         31.67545       51.69099      125.16863
O         30.80174       50.85060      125.00420
C         30.95474       52.34577      127.52887
C         30.20636       53.60834      127.20287
O         29.17691       53.97417      127.98845
O         30.51724       54.31095      126.25664
H         32.97275       53.91218      127.09663
H         32.54248       51.03540      127.03094
H         31.34411       52.44324      128.56563
H         30.22729       51.50498      127.52207
N         32.22590       52.30909      124.08190
C         31.86569       52.01300      122.70310
C         30.51781       52.54607      122.25413
O         30.19823       52.33529      121.09247
H         32.99773       52.96700      124.21301
H         31.92387       50.91547      122.53479
H         32.61762       52.49159      122.03764
N         29.68120       53.24707      123.07522
C         28.39313       53.78536      122.63510
C         28.32832       55.29608      122.83037
O         29.25532       55.88500      123.36801
C         27.22861       53.05809      123.35381
C         27.15603       51.57556      122.96372
O         27.30793       53.20026      124.74935
H         29.95543       53.40741      124.05010
H         28.25879       53.61896      121.54327
H         26.26655       53.50456      123.02444
H         28.04291       52.62267      125.08228
H         28.07934       51.03809      123.26603
H         26.28571       51.10062      123.46355
H         27.02719       51.47725      121.86450
N         27.25829       55.98936      122.34247
C         27.12586       57.44357      122.35114
C         25.82694       57.83323      123.07232
O         24.77429       57.29598      122.75896
C         27.16690       57.94492      120.87330
C         28.48219       57.53507      120.14039
C         26.95794       59.46138      120.76160
C         29.77898       58.14242      120.70283
H         26.51378       55.46043      121.86311
H         27.97646       57.92388      122.87946
H         26.32678       57.46229      120.32632
H         28.40544       57.83847      119.07330
H         28.58267       56.42934      120.15398
H         27.75603       60.01268      121.29233
H         26.96921       59.76735      119.69392
H         25.97783       59.75698      121.18636
H         29.94979       57.84794      121.75643
H         30.64300       57.77600      120.10845
H         29.77503       59.24910      120.63115
N         25.84276       58.81349      124.02177
C         24.69763       59.29817      124.79458
C         24.29565       60.67927      124.29457
O         24.84588       61.13883      123.30845
C         25.09163       59.40653      126.30059
C         25.48361       58.05054      126.89613
O         26.11980       60.36683      126.44228
H         26.72350       59.30285      124.17468
H         23.82138       58.62271      124.68313
H         24.22050       59.74933      126.89476
H         26.77321       60.07531      127.12938
H         26.39464       57.68627      126.39661
H         25.70028       58.16351      127.98120
H         24.65843       57.31752      126.77944
N         23.35719       61.41933      124.94932
C         23.03338       62.79639      124.58359
C         24.27267       63.68957      124.67259
O         24.60598       64.33058      123.68552
C         21.89801       63.36417      125.47863
C         20.57530       62.61678      125.26946
O         22.25954       63.30082      126.83510
H         22.87963       61.00171      125.75950
H         22.66299       62.81804      123.53316
H         21.73870       64.42649      125.17601
H         21.74212       64.00267      127.30919
H         20.66128       61.54790      125.55430
H         19.78336       63.07896      125.89621
H         20.26201       62.68200      124.20619
N         24.99842       63.78320      125.82701
C         26.15006       64.67729      126.00220
C         27.37146       64.31689      125.16098
O         28.35667       65.03785      125.24847
C         26.56705       64.72610      127.48923
C         25.48018       65.38720      128.34814
C         25.92224       65.50621      129.80829
C         24.87354       66.27132      130.62485
N         25.28784       66.39881      132.02040
H         24.69062       63.22105      126.63345
H         25.84893       65.70716      125.70766
H         27.48218       65.35089      127.59239
H         26.80363       63.70211      127.85621
H         24.53220       64.81057      128.29820
H         25.29439       66.40850      127.94739
H         26.88642       66.05867      129.85898
H         26.06914       64.48951      130.23432
H         23.89757       65.73924      130.57612
H         24.74096       67.28798      130.19023
H         26.20024       66.90703      132.07982
H         24.56337       66.94269      132.54232
H         25.38094       65.45167      132.45370
N         27.38851       63.25996      124.30772
C         28.53197       62.91569      123.47668
C         28.20297       63.25685      122.03622
O         28.92101       64.04970      121.44321
C         28.86242       61.43021      123.67217
C         29.29988       61.13600      125.11683
C         29.54499       59.67278      125.30137
O         30.79103       59.22341      125.20414
O         28.63159       58.87619      125.40781
H         26.55462       62.67293      124.21368
H         29.43457       63.50604      123.75387
H         29.68299       61.13055      122.98172
H         27.96966       60.83973      123.41535
H         28.56776       61.47832      125.87716
H         30.25250       61.68460      125.28831
N         27.10215       62.73840      121.42630
C         26.67627       63.09302      120.08856
H         25.66155       63.54241      120.14192
H         27.35642       63.82469      119.60632
H         26.62777       62.18247      119.45865
H         26.51180       62.07924      121.94047
Ca        31.31382       57.06659      125.16820
O         28.84378       57.44554      128.10633
H         28.18085       57.11154      128.76165
H         29.22195       58.25860      128.52598
O         27.58419       55.58772      126.03133
H         26.81420       55.64593      125.41062
H         27.17679       55.35295      126.90257

Ca 1.0



