%chk=holoCaM.loop3.water1.frame10.chk
%nprocshared=20
%mem=10GB
%nosave
#b3lyp/svp scf=(tight,noincore,xqc) Test 
#IOP(5/87=12) Density=Current Pop=(MK,readradii) iop(6/33=2) iop(6/42=6)

holoCaM.loop3.water1.frame10 

   0  1 
C         77.63336       39.89040       57.26567
C         76.93416       40.37615       56.02930
O         76.16474       41.32291       56.10795
H         78.26811       40.70495       57.67390
H         76.88759       39.58276       58.02518
H         78.29095       39.02188       57.04361
N         77.19874       39.79455       54.83112
C         76.64190       40.26831       53.57273
C         75.17852       39.84203       53.45354
O         74.91418       38.64961       53.52566
C         77.50811       39.69494       52.42865
C         77.36115       40.44063       51.13877
O         76.17931       40.52503       50.51344
O         78.33261       40.99728       50.65478
H         77.89757       39.03459       54.80789
H         76.76069       41.37505       53.53267
H         77.31082       38.61206       52.30157
H         78.57844       39.80316       52.71398
N         74.17599       40.75017       53.25957
C         72.76745       40.36726       53.09170
C         72.59831       39.39115       51.92948
O         71.92574       38.38439       52.10338
C         71.84882       41.60777       52.88605
C         71.70834       42.44719       54.17686
C         70.79713       43.68901       54.05229
C         69.31821       43.38421       53.76444
N         68.53721       44.62408       53.71653
H         74.42868       41.74698       53.20090
H         72.40198       39.85341       54.00968
H         70.83366       41.24512       52.61764
H         72.22814       42.23205       52.04683
H         72.71480       42.80188       54.48299
H         71.30768       41.80376       54.99117
H         71.17296       44.35921       53.26177
H         70.84881       44.23679       55.01933
H         68.91285       42.72915       54.56628
H         69.21451       42.86037       52.79050
H         67.52990       44.39464       53.55519
H         68.62116       45.14360       54.62087
H         68.87245       45.23245       52.93391
N         73.20535       39.61247       50.73018
C         73.04060       38.76114       49.54854
C         74.30591       37.97749       49.15910
O         74.28392       37.32173       48.12667
C         72.51066       39.63899       48.39474
C         73.42461       40.78330       48.04907
O         74.54014       40.57167       47.61118
O         73.01116       42.05314       48.22069
H         73.79956       40.44663       50.64671
H         72.26662       37.98284       49.73168
H         71.53158       40.05939       48.71134
H         72.33581       39.02174       47.48740
N         75.40145       37.91143       49.96989
C         76.56556       37.06888       49.70793
C         77.46886       37.45737       48.54490
O         78.41076       36.71010       48.31570
H         75.36370       38.37583       50.88315
H         76.21175       36.02715       49.54908
H         77.21023       37.05786       50.61095
N         77.27851       38.55541       47.75323
C         78.11727       38.79931       46.57276
C         79.56899       39.14850       46.90130
O         80.37989       39.16886       45.98636
C         77.47835       39.84001       45.62054
C         77.54965       41.28041       46.07577
N         78.05083       42.23042       45.24849
O         77.12420       41.60144       47.17407
H         76.47722       39.16694       47.93936
H         78.11781       37.84450       46.00025
H         76.41293       39.56225       45.47440
H         77.97361       39.76204       44.62789
H         78.38769       41.99126       44.30411
H         78.07570       43.21867       45.53467
N         79.96171       39.46911       48.16842
C         81.32951       39.80662       48.53376
C         81.48913       41.27271       48.87891
O         82.57387       41.64378       49.30600
H         79.26161       39.50773       48.91866
H         82.04477       39.58663       47.71271
H         81.61728       39.17819       49.40474
N         80.48778       42.17690       48.66464
C         80.62363       43.60455       48.91365
C         79.48957       44.07973       49.84413
O         78.34482       44.09381       49.04874
C         80.52248       44.37683       47.57497
C         81.67528       44.15074       46.65670
C         81.67448       43.09094       45.73632
C         82.74597       45.05093       46.68417
C         82.74264       42.94205       44.84749
C         83.81107       44.89907       45.80189
C         83.81244       43.84625       44.87606
O         84.83223       43.70095       44.00862
H         79.59434       41.85913       48.26468
H         81.59985       43.83320       49.39547
H         80.45257       45.46696       47.78111
H         79.58728       44.12783       47.02949
H         80.84520       42.39432       45.69608
H         82.74861       45.87472       47.38823
H         82.73404       42.13049       44.13112
H         84.62784       45.60728       45.83617
H         85.58013       44.31524       43.99591
N         79.75886       45.44769       50.30546
C         78.84038       45.99478       51.32418
C         78.78288       47.49713       51.10170
O         79.81259       48.15893       51.14245
C         79.26478       45.59275       52.79445
C         78.65236       44.20467       53.14369
C         78.84397       46.64378       53.85180
C         79.04310       43.64944       54.51730
H         80.75036       45.56245       50.62272
H         77.80353       45.62822       51.15736
H         80.37428       45.55144       52.85623
H         78.96638       43.45812       52.38788
H         77.54168       44.27996       53.11236
H         79.32140       47.62412       53.64546
H         77.74892       46.78074       53.88065
H         79.20052       46.36816       54.86426
H         80.14312       43.52601       54.58574
H         78.68667       44.29570       55.34489
H         78.56476       42.65806       54.66092
N         77.57324       48.10160       50.91468
C         77.37918       49.54236       50.80406
C         76.82295       50.06131       52.11212
O         76.63846       49.26115       53.01638
C         76.41642       49.84473       49.64147
O         75.15186       49.27957       49.89130
H         76.72294       47.51674       50.96075
H         78.34720       50.05886       50.62133
H         76.85285       49.45831       48.69104
H         76.28770       50.93976       49.51570
H         74.96838       48.61442       49.17851
N         76.54064       51.37760       52.31787
C         76.00004       51.85269       53.59047
C         74.62154       51.27484       53.88836
O         74.21657       51.28803       55.04032
C         75.90962       53.37691       53.61460
H         76.73419       52.05378       51.56120
H         76.70317       51.53105       54.39342
H         75.53936       53.72573       54.60229
H         76.91236       53.81788       53.43601
H         75.21264       53.72789       52.82289
N         73.84025       50.76745       52.89121
C         72.53863       50.15215       53.12621
C         72.70184       48.94253       54.01600
O         72.04143       48.83104       55.04016
C         71.92663       49.71842       51.78114
H         74.18460       50.81134       51.92256
H         71.84552       50.88144       53.59751
H         72.59111       49.00615       51.24402
H         70.94267       49.22835       51.93782
H         71.78037       50.60560       51.12947
N         73.58932       47.98853       53.65494
C         73.83033       46.75396       54.38550
C         74.46062       47.07590       55.73001
O         73.95305       46.63414       56.75028
C         74.68828       45.82736       53.50293
C         73.92571       45.53919       52.18724
C         74.75235       44.78297       51.23570
O         75.07357       45.29822       50.17434
O         75.17881       43.55003       51.53035
H         74.13423       48.16766       52.79687
H         72.87211       46.21114       54.54883
H         74.90376       44.86957       54.02752
H         75.65151       46.32521       53.26824
H         73.63983       46.47374       51.66643
H         73.00454       44.97326       52.37704
N         75.52755       47.91661       55.80438
C         76.10476       48.36305       57.05205
H         76.90917       49.10412       56.84644
H         75.32842       48.86471       57.66899
H         76.53748       47.50611       57.60547
H         75.91499       48.30179       54.94289
Ca        76.65520       43.09041       50.00566
O         76.40104       44.96462       47.23726
H         76.85197       45.71235       47.70479
H         76.65374       45.08072       46.28779

Ca 1.0



