%chk=holoCaM.loop4.water3.frame345.chk
%nprocshared=20
%mem=10GB
%nosave
#b3lyp/svp scf=(tight,noincore,xqc) Test 
#IOP(5/87=12) Density=Current Pop=(MK,readradii) iop(6/33=2) iop(6/42=6)

holoCaM.loop4.water3.frame345 

   -3  1 
C        -10.56440       42.81998       89.57808
C        -11.41151       43.26803       88.42149
O        -11.77617       42.44621       87.59486
H         -9.59491       43.35850       89.57321
H        -11.09693       43.04111       90.52873
H        -10.37327       41.72611       89.53385
N        -11.80486       44.56948       88.33828
C        -12.72614       45.08578       87.33071
C        -12.13522       46.33372       86.67572
O        -11.74082       47.25863       87.37151
C        -14.04471       45.41657       88.04671
C        -15.22556       45.84849       87.20403
O        -16.17722       46.34123       87.78649
O        -15.34021       45.66400       85.86903
H        -11.49991       45.21322       89.08526
H        -12.94800       44.30953       86.57042
H        -13.82520       46.22854       88.77326
H        -14.37983       44.53188       88.63220
N        -12.09484       46.42963       85.32371
C        -11.56699       47.54047       84.54667
C        -12.71899       48.33204       83.93039
O        -12.68143       49.55325       83.99055
C        -10.62299       46.96040       83.44305
C         -9.45376       46.17928       84.10070
C        -10.09448       48.06612       82.50747
C         -8.58090       45.41156       83.10447
H        -12.45927       45.64898       84.78675
H        -10.97909       48.23921       85.18405
H        -11.21563       46.25056       82.82165
H         -9.86773       45.42294       84.79764
H         -8.81942       46.87270       84.69408
H         -9.47788       47.63848       81.69162
H        -10.93263       48.59594       82.00890
H         -9.48766       48.80299       83.07400
H         -7.81468       44.83159       83.66114
H         -9.20101       44.70047       82.51821
H         -8.04822       46.09299       82.41263
N        -13.76096       47.70663       83.30778
C        -14.79782       48.40186       82.55032
C        -16.18251       48.35794       83.21001
O        -16.76475       49.42487       83.35488
C        -14.76601       47.94016       81.07034
C        -14.93438       46.47110       80.75401
O        -15.12003       45.54302       81.70510
O        -14.86275       46.10859       79.59126
H        -13.79365       46.68374       83.33050
H        -14.55331       49.48729       82.48688
H        -13.76788       48.22575       80.66939
H        -15.53292       48.51138       80.50479
N        -16.77093       47.20899       83.65611
C        -18.09557       47.16966       84.27988
C        -19.06556       46.22952       83.57633
O        -20.19062       46.10525       84.03981
H        -16.25462       46.32577       83.59651
H        -18.56285       48.17799       84.31058
H        -17.97792       46.82532       85.32901
N        -18.71195       45.54537       82.45121
C        -19.59300       44.64905       81.69763
C        -20.00563       43.35173       82.41457
O        -20.68442       42.55255       81.78356
C        -18.93704       44.31603       80.33146
C        -17.59559       43.62827       80.40173
O        -16.99691       43.37059       81.57889
O        -17.02289       43.33129       79.36648
H        -17.77964       45.72335       82.05898
H        -20.52875       45.19969       81.45482
H        -18.79440       45.26753       79.77424
H        -19.63187       43.68327       79.73868
N        -19.68714       43.06831       83.71085
C        -20.10984       41.83890       84.37416
C        -19.35666       40.59836       83.92341
O        -19.70558       39.52144       84.38951
H        -19.19245       43.76039       84.27637
H        -21.20346       41.70419       84.22472
H        -19.93303       41.93308       85.46773
N        -18.29305       40.66055       83.07222
C        -17.50278       39.50460       82.66044
C        -16.07016       39.63739       83.14198
O        -15.70318       40.67571       83.68076
C        -17.51353       39.38691       81.12190
C        -18.90529       39.03765       80.57733
C        -18.92683       38.89660       79.07261
N        -20.06314       38.50521       78.45272
O        -17.92617       39.12387       78.40671
H        -17.99613       41.57457       82.71858
H        -17.90534       38.56915       83.10797
H        -16.82143       38.57790       80.80309
H        -17.15423       40.34369       80.67802
H        -19.64115       39.81600       80.87216
H        -19.21409       38.06602       81.01983
H        -20.91247       38.29632       78.99753
H        -20.09066       38.39746       77.42787
N        -15.20181       38.59685       82.98384
C        -13.79984       38.64415       83.37331
C        -12.94229       38.44077       82.13712
O        -12.89484       37.34520       81.59241
C        -13.52168       37.61828       84.51034
C        -12.02483       37.39715       84.77728
C        -14.18589       38.10149       85.81251
H        -15.54909       37.72096       82.56032
H        -13.55064       39.64376       83.77459
H        -13.94724       36.63227       84.21998
H        -11.88751       36.65438       85.59210
H        -11.51831       36.98887       83.87804
H        -11.53551       38.33971       85.08106
H        -15.27822       38.24042       85.67907
H        -14.02306       37.36958       86.63143
H        -13.74423       39.07427       86.12771
N        -12.25586       39.50132       81.62700
C        -11.35864       39.43551       80.47689
C        -10.04946       38.76334       80.88563
O         -9.89257       38.42476       82.04515
C        -11.11889       40.89326       79.99097
C        -10.30273       41.05728       78.73506
N        -10.70803       40.51330       77.56507
O         -9.27472       41.71605       78.76841
H        -12.40077       40.42043       82.07235
H        -11.85737       38.87113       79.65857
H        -10.64121       41.46924       80.81305
H        -12.10779       41.35346       79.78296
H        -11.57895       39.96709       77.50897
H        -10.14881       40.64581       76.70962
N         -9.05627       38.54593       79.98334
C         -7.72010       38.06029       80.33940
C         -6.97602       39.04960       81.24291
O         -6.42831       38.61003       82.24532
C         -6.92897       37.62656       79.07590
C         -6.96312       38.59225       77.91097
C         -7.73825       38.26799       76.78023
C         -6.25554       39.80131       77.92482
C         -7.82702       39.14651       75.70165
C         -6.34360       40.68234       76.83909
C         -7.13697       40.35925       75.72775
O         -7.24469       41.20259       74.68185
H         -9.26190       38.74817       78.99873
H         -7.81556       37.11447       80.92215
H         -7.43195       36.69243       78.73981
H         -5.88604       37.33652       79.32854
H         -8.29477       37.33941       76.73918
H         -5.63615       40.06005       78.77118
H         -8.44130       38.88510       74.84904
H         -5.79897       41.61707       76.86174
H         -6.79492       42.05871       74.66172
N         -6.97129       40.39780       81.00663
C         -6.31995       41.37924       81.89089
C         -6.93187       41.44969       83.29181
O         -6.42869       42.21730       84.10190
C         -6.39562       42.80843       81.28886
C         -5.68110       43.01304       79.94388
C         -4.18788       42.82400       80.02392
O         -3.44314       43.76549       79.80220
O         -3.65788       41.61823       80.30267
H         -7.45681       40.73796       80.16801
H         -5.25765       41.09409       82.02102
H         -5.95104       43.54093       81.99965
H         -7.46839       43.07609       81.16034
H         -5.88416       44.05897       79.62399
H         -6.10365       42.34828       79.17093
N         -7.99947       40.69239       83.65827
C         -8.63791       40.75610       84.95955
C         -8.37601       39.47227       85.72189
O         -7.86756       39.53778       86.83246
C        -10.14277       40.97946       84.77026
C        -10.45549       42.27651       84.01062
C        -11.93258       42.53705       83.95837
O        -12.40787       43.63491       83.35794
O        -12.71703       41.80138       84.53031
H         -8.41125       40.04275       82.98862
H         -8.24078       41.60044       85.56786
H        -10.61326       41.01293       85.77592
H        -10.58479       40.14092       84.19416
H        -10.04773       42.22524       82.97975
H         -9.98196       43.12741       84.53945
N         -8.67453       38.26099       85.17920
C         -8.42076       37.01459       85.86308
H         -7.34042       36.92825       86.10531
H         -9.02333       36.96465       86.79342
H         -8.70466       36.16385       85.20644
H         -9.07886       38.21145       84.23997
Ca       -14.31054       44.36213       84.32290
O        -14.91828       41.69912       86.32431
H        -14.18691       42.32558       86.54479
H        -15.44561       41.64029       87.15830
O        -14.22532       42.38940       81.14413
H        -13.62438       43.09002       80.78563
H        -14.73557       42.07436       80.35647
O        -16.99170       43.40715       85.33756
H        -17.45499       42.93322       86.07189
H        -17.34598       44.32978       85.38460

Ca 1.0



