%chk=holoCaM-CaMKII.loop1.water2.frame379.chk
%nprocshared=20
%mem=10GB
%nosave
#b3lyp/svp scf=(tight,noincore,xqc) Test 
#IOP(5/87=12) Density=Current Pop=(MK,readradii) iop(6/33=2) iop(6/42=6)

holoCaM-CaMKII.loop1.water2.frame379 

   0  1 
C         74.36360       77.90874       66.11247
C         74.82447       79.01039       67.01741
O         74.36717       80.13262       66.87583
H         73.62412       78.28553       65.37433
H         75.23695       77.49696       65.56338
H         73.89689       77.10139       66.71433
N         75.74090       78.74769       67.98698
C         76.27575       79.76238       68.89184
C         77.02962       80.82515       68.09141
O         78.09607       80.54295       67.56557
C         77.13087       79.03806       69.96955
C         78.03375       79.82749       70.88462
O         77.60271       80.84178       71.65687
O         79.19499       79.47239       70.98601
H         76.05907       77.77018       68.08154
H         75.41359       80.23764       69.40327
H         77.79125       78.30683       69.45283
H         76.43021       78.45178       70.60302
N         76.47776       82.06694       67.92232
C         77.04426       83.13173       67.08817
C         77.95519       84.06355       67.85710
O         78.60809       84.87089       67.20935
C         75.90082       83.95525       66.41828
C         75.23507       83.14761       65.29624
C         76.10519       83.16829       64.02184
C         75.88812       81.95404       63.11272
N         74.49964       81.78322       62.69506
H         75.53908       82.21707       68.30736
H         77.69693       82.67254       66.31920
H         76.25814       84.91501       65.98229
H         75.15909       84.21900       67.20589
H         74.23966       83.57013       65.03202
H         75.07476       82.12071       65.66814
H         77.18396       83.14561       64.27105
H         75.92559       84.12679       63.48390
H         76.22192       81.04255       63.65758
H         76.53655       82.07374       62.21631
H         74.16367       82.63462       62.19165
H         74.45115       80.95982       62.05202
H         73.89307       81.58577       63.52313
N         78.06781       84.02783       69.21339
C         78.99763       84.87724       69.95191
C         79.98973       84.05210       70.76775
O         80.77976       84.64170       71.49204
C         78.22683       85.93715       70.77053
C         77.29936       85.43714       71.84217
O         77.18212       84.24910       72.08327
O         76.58175       86.32906       72.55104
H         77.47450       83.38053       69.74872
H         79.62139       85.47586       69.25180
H         77.62272       86.53673       70.05374
H         78.96055       86.62491       71.24392
N         80.07711       82.69334       70.63317
C         81.10707       81.89361       71.27836
C         80.92625       81.68651       72.77062
O         81.77521       81.02154       73.34714
H         79.46922       82.20386       69.96166
H         82.09959       82.35005       71.07504
H         81.12757       80.89027       70.80852
N         79.88236       82.21193       73.47756
C         79.78336       82.06846       74.93124
C         79.56852       80.63314       75.41781
O         79.73141       80.40892       76.60982
C         78.72445       83.03205       75.52165
C         77.31073       82.85472       75.02859
O         77.02456       82.01542       74.19271
O         76.34775       83.66842       75.49929
H         79.18802       82.79034       72.98790
H         80.76062       82.39962       75.34812
H         79.02726       84.07167       75.27272
H         78.72482       82.93279       76.62831
N         79.18266       79.62101       74.58879
C         79.01026       78.24066       75.02618
C         77.55456       77.82174       75.08894
O         77.29853       76.64395       75.28104
H         78.97035       79.82931       73.60512
H         79.44307       78.06247       76.03438
H         79.55891       77.58835       74.31264
N         76.55099       78.74179       75.00217
C         75.13002       78.41668       75.08416
C         74.39498       78.91967       73.84710
O         74.95679       79.64776       73.04639
C         74.51777       79.02362       76.38456
C         74.96078       78.23012       77.61490
O         74.88950       80.36728       76.58368
H         76.79755       79.72941       74.90505
H         74.98229       77.31494       75.10002
H         73.40822       78.95391       76.35096
H         74.96195       80.81292       75.70422
H         74.61746       77.17669       77.53291
H         76.06483       78.24832       77.72734
H         74.50329       78.67002       78.52784
N         73.12120       78.48375       73.61508
C         72.32561       78.83293       72.43861
C         70.97758       79.37443       72.90842
O         70.38404       78.80614       73.81103
C         72.17221       77.58355       71.52023
C         73.57752       77.11656       71.04131
C         71.27832       77.91380       70.30422
C         73.57287       75.80639       70.25308
H         72.71299       77.81143       74.28044
H         72.83384       79.60712       71.82369
H         71.69501       76.76655       72.10503
H         74.23282       76.94075       71.91960
H         74.04287       77.91237       70.41874
H         71.13158       77.02931       69.65454
H         70.26631       78.22779       70.63001
H         71.72709       78.73226       69.69960
H         74.61765       75.54048       69.98403
H         73.15072       74.98995       70.87624
H         72.99879       75.89072       69.30985
N         70.42259       80.45923       72.29312
C         69.16801       81.08699       72.70662
C         68.09739       80.88958       71.64745
O         68.37093       80.32329       70.60361
C         69.40086       82.60493       72.93605
C         70.41807       82.86719       74.04216
O         69.85687       83.19423       71.74610
H         70.89794       80.84846       71.47404
H         68.78977       80.62473       73.64356
H         68.43760       83.07484       73.23933
H         69.66784       84.16665       71.80495
H         71.39384       82.42073       73.76763
H         70.55412       83.96289       74.17170
H         70.06610       82.43678       75.00220
N         66.82882       81.34167       71.86966
C         65.76814       81.25297       70.86471
C         66.07810       82.12180       69.65352
O         65.50738       81.89843       68.59463
C         64.41040       81.71323       71.45191
C         63.94023       80.80101       72.58970
O         64.52343       83.03627       71.91730
H         66.62088       81.76997       72.78241
H         65.67951       80.19355       70.53658
H         63.64991       81.66291       70.63693
H         63.60719       83.41611       71.94815
H         64.65441       80.80534       73.43872
H         62.95528       81.15089       72.96439
H         63.82708       79.76058       72.21930
N         66.88046       83.21059       69.78066
C         67.14070       84.16394       68.71228
C         68.16923       83.59615       67.76596
O         67.95535       83.58498       66.56243
C         67.60859       85.50568       69.32945
C         66.58032       86.09223       70.33234
C         65.21691       86.41183       69.68939
C         64.15876       86.89451       70.69374
N         64.55587       88.11650       71.39066
H         67.28261       83.41207       70.70725
H         66.21809       84.37545       68.13730
H         67.79387       86.24555       68.52067
H         68.56692       85.35210       69.87328
H         67.01341       87.02208       70.75592
H         66.42331       85.38823       71.17632
H         64.78337       85.50029       69.23307
H         65.36018       87.17250       68.89241
H         63.94828       86.09322       71.43726
H         63.21972       87.08682       70.12783
H         65.34887       87.92084       72.04228
H         64.82553       88.85567       70.70240
H         63.74612       88.45733       71.95743
N         69.31142       83.07032       68.27517
C         70.37214       82.47065       67.47889
C         69.81027       81.30523       66.68255
O         69.87372       81.33837       65.46118
C         71.52175       82.04751       68.41729
C         72.12327       83.28808       69.12436
C         73.11704       82.89099       70.15825
O         74.39062       83.26320       70.03732
O         72.79297       82.18668       71.09696
H         69.40535       83.07218       69.29861
H         70.77788       83.22562       66.76857
H         72.32240       81.53214       67.84384
H         71.12502       81.33034       69.16850
H         71.35908       83.89289       69.64586
H         72.60734       83.93410       68.36052
N         69.18799       80.26826       67.30560
C         68.53385       79.20395       66.57527
H         67.72444       79.62858       65.94175
H         69.26326       78.66601       65.93542
H         68.07409       78.48367       67.28581
H         69.14364       80.24985       68.33067
Ca        75.73447       81.92152       71.18240
O         73.51960       84.87930       72.69984
H         73.59400       85.34223       73.57164
H         72.58594       85.04032       72.41202
O         73.57918       82.81749       74.99417
H         73.13145       82.11011       75.52172
H         73.08511       83.63984       75.23348

Ca 1.0



