%chk=holoCaM-CaMKII.loop4.water1.frame443.chk
%nprocshared=20
%mem=10GB
%nosave
#b3lyp/svp scf=(tight,noincore,xqc) Test 
#IOP(5/87=12) Density=Current Pop=(MK,readradii) iop(6/33=2) iop(6/42=6)

holoCaM-CaMKII.loop4.water1.frame443 

   -3  1 
C         68.99617       95.57686       14.25321
C         68.84136       96.37659       15.51211
O         67.75260       96.43969       16.06192
H         69.76545       94.79024       14.40314
H         68.03785       95.09752       13.96431
H         69.32381       96.24818       13.43043
N         69.92106       97.01526       16.03098
C         69.87578       97.85126       17.22475
C         69.00888       99.07704       16.96844
O         69.16986       99.71343       15.93587
C         71.31496       98.20642       17.62784
C         71.37181       99.03823       18.86620
O         72.01622      100.06688       18.86284
O         70.73993       98.65242       19.98784
H         70.82451       96.89479       15.54464
H         69.45461       97.26342       18.07164
H         71.84510       98.72766       16.79997
H         71.84938       97.25420       17.83918
N         68.05885       99.45475       17.87531
C         67.07200      100.50383       17.62877
C         67.40876      101.73598       18.45752
O         67.69881      102.77395       17.87830
C         65.63363       99.96843       17.94171
C         65.34475       98.57188       17.33164
C         64.54734      100.98433       17.55257
C         65.40040       98.50374       15.80764
H         68.02216       98.95842       18.77462
H         67.11083      100.80162       16.55706
H         65.54454       99.81432       19.03593
H         64.33970       98.23162       17.66512
H         66.07520       97.84181       17.74019
H         63.54469      100.59250       17.83018
H         64.69593      101.94259       18.09238
H         64.56272      101.19025       16.46286
H         65.19984       97.45866       15.48871
H         64.63008       99.15664       15.35244
H         66.40387       98.79384       15.43632
N         67.38669      101.69707       19.82175
C         67.70845      102.85042       20.66347
C         69.18045      103.27581       20.57602
O         69.51712      104.29838       21.15740
C         67.31702      102.60519       22.14281
C         68.08994      101.47868       22.76491
O         68.92721      101.71706       23.62039
O         67.87981      100.20451       22.38359
H         67.08314      100.82544       20.26601
H         67.08505      103.70386       20.31510
H         66.22972      102.39862       22.23679
H         67.52551      103.54195       22.70709
N         70.10872      102.57296       19.86492
C         71.48174      103.02110       19.69891
C         72.30008      102.97425       20.97170
O         72.87248      103.99513       21.32480
H         69.83757      101.71389       19.36782
H         71.48752      104.04194       19.25910
H         71.98947      102.37856       18.95929
N         72.45194      101.81236       21.67851
C         73.37031      101.68233       22.81861
C         74.46790      100.64677       22.57504
O         75.36687      100.56838       23.40070
C         72.61395      101.42766       24.14314
C         71.78957      100.17387       24.20036
O         71.05810       99.98383       25.15901
O         71.73714       99.33052       23.15994
H         71.91416      100.99001       21.37056
H         73.90645      102.64479       22.96443
H         71.91963      102.28397       24.29217
H         73.32977      101.41877       24.99256
N         74.48711       99.83990       21.47119
C         75.58304       98.93766       21.14918
C         75.19015       97.47612       21.16891
O         76.01468       96.66475       20.77092
H         73.71743       99.87181       20.79285
H         76.44058       99.05852       21.84553
H         75.94223       99.20311       20.13193
N         73.99929       97.04805       21.67965
C         73.64567       95.63595       21.80851
C         72.26818       95.34750       21.24464
O         71.56870       96.27489       20.86548
C         73.82975       95.19567       23.28507
C         73.20617       96.08254       24.38944
C         71.70290       96.02713       24.50608
N         71.12123       95.60658       25.65467
O         70.99973       96.39626       23.58148
H         73.34853       97.74014       22.07290
H         74.34380       95.01122       21.20849
H         74.92657       95.24829       23.46572
H         73.53230       94.13449       23.42478
H         73.52971       97.13707       24.26441
H         73.64011       95.73914       25.35339
H         71.69007       95.31086       26.46172
H         70.09476       95.58916       25.74544
N         71.82610       94.06124       21.12285
C         70.50750       93.71645       20.60119
C         69.75988       92.91005       21.65301
O         70.13416       91.78232       21.94477
C         70.63481       92.96946       19.24334
C         69.27115       92.49574       18.71086
C         71.28378       93.88627       18.19003
H         72.45462       93.29102       21.39963
H         69.92312       94.64167       20.39855
H         71.27896       92.07273       19.38022
H         68.58277       93.35395       18.55934
H         69.40196       91.96878       17.74110
H         68.80300       91.77644       19.41263
H         72.29101       94.21884       18.51593
H         71.39906       93.34845       17.22491
H         70.65327       94.78600       18.01591
N         68.69163       93.47015       22.28267
C         67.86361       92.81150       23.29060
C         66.99804       91.74170       22.62924
O         67.05697       91.61115       21.41708
C         66.98097       93.91106       23.94386
C         66.18784       93.49006       25.15004
N         66.81029       93.04901       26.26645
O         64.97050       93.58455       25.13452
H         68.47158       94.44250       22.04567
H         68.52796       92.37229       24.06579
H         66.29611       94.32062       23.16989
H         67.64207       94.73876       24.28212
H         67.83756       92.98757       26.30813
H         66.26211       92.78304       27.09764
N         66.15123       90.94750       23.34628
C         65.19694       90.04697       22.69943
C         64.13750       90.86839       21.97666
O         63.88702       90.63149       20.80404
C         64.51875       89.11690       23.72821
C         63.63061       88.09289       23.04721
C         64.18246       87.15515       22.15311
C         62.24818       88.06153       23.29717
C         63.36851       86.21217       21.51969
C         61.43526       87.11493       22.66203
C         61.99409       86.18730       21.77034
O         61.22390       85.26937       21.15148
H         66.16474       90.99968       24.37462
H         65.74706       89.39676       21.98457
H         63.93772       89.72773       24.45348
H         65.29780       88.56690       24.29879
H         65.24442       87.14924       21.94411
H         61.79719       88.77018       23.97993
H         63.80819       85.49875       20.83332
H         60.37149       87.10323       22.86294
H         60.26882       85.21405       21.29746
N         63.49353       91.87900       22.63436
C         62.47939       92.74832       22.03286
C         63.01174       93.56255       20.84266
O         62.20850       94.19526       20.17281
C         61.89289       93.66525       23.14085
C         60.66550       94.49569       22.72385
C         60.08695       95.28142       23.87318
O         59.10037       95.97577       23.68884
O         60.63751       95.23274       25.10321
H         63.73333       92.02378       23.62527
H         61.66333       92.08909       21.66264
H         62.69029       94.34272       23.52018
H         61.56827       93.00507       23.97650
H         59.87918       93.81145       22.33845
H         60.93761       95.22153       21.93263
N         64.32978       93.55525       20.48112
C         64.85065       94.22882       19.29506
C         65.18617       93.21710       18.20753
O         65.03735       93.55399       17.04117
C         66.07000       95.10201       19.65147
C         65.68117       96.20486       20.64626
C         66.82616       97.12331       20.95099
O         66.71530       98.31453       20.73289
O         67.96311       96.65952       21.49441
H         65.00483       93.03141       21.04526
H         64.07680       94.89820       18.85681
H         66.46050       95.57362       18.72306
H         66.87518       94.46675       20.08363
H         65.32693       95.75413       21.59502
H         64.85103       96.80485       20.21284
N         65.57571       91.94417       18.50532
C         65.80641       90.91233       17.51704
H         66.84833       90.54174       17.60631
H         65.11147       90.06700       17.71329
H         65.63621       91.26953       16.48115
H         65.69924       91.66264       19.47933
Ca        69.63392       98.85574       22.64271
O         67.94843       97.77497       24.83736
H         67.54711       98.63935       24.56912
H         67.17198       97.18999       25.02183

Ca 1.0



