%chk=holoCaM-CaMKII.loop2.water1.frame288.chk
%nprocshared=20
%mem=10GB
%nosave
#b3lyp/svp scf=(tight,noincore,xqc) Test 
#IOP(5/87=12) Density=Current Pop=(MK,readradii) iop(6/33=2) iop(6/42=6)

holoCaM-CaMKII.loop2.water1.frame288 

   -2  1 
C         48.21637       33.17969       54.91894
C         49.24275       33.22173       53.82218
O         49.80789       34.27051       53.55988
H         47.24351       32.82923       54.51482
H         48.55198       32.46883       55.70549
H         48.07937       34.17883       55.38265
N         49.53926       32.08136       53.14817
C         50.58171       31.95767       52.13275
C         50.37014       32.86029       50.91871
O         49.31048       32.81850       50.31039
C         50.66287       30.48690       51.69343
C         51.69091       30.28524       50.63097
O         52.96286       30.67427       50.84015
O         51.36606       29.79439       49.56236
H         49.01504       31.23231       53.41520
H         51.55806       32.20631       52.59920
H         49.67385       30.14721       51.31418
H         50.93780       29.86537       52.57301
N         51.40044       33.64903       50.48000
C         51.35539       34.51020       49.30475
C         52.40880       34.15679       48.23955
O         52.32729       34.73808       47.16627
C         51.55883       35.96244       49.75821
H         52.27170       33.63661       51.01077
H         50.35790       34.42788       48.82302
H         50.78081       36.24375       50.49975
H         52.55604       36.08141       50.23870
H         51.49452       36.66299       48.89898
N         53.44280       33.27977       48.45275
C         54.47540       32.98451       47.44561
C         54.72142       31.47990       47.22742
O         55.58684       31.14415       46.43039
C         55.77860       33.74093       47.79360
C         56.28586       33.50397       49.18265
O         56.43609       34.53852       50.03102
O         56.58427       32.38546       49.54587
H         53.56231       32.86266       49.38526
H         54.17550       33.38115       46.45091
H         55.58622       34.83039       47.69274
H         56.57188       33.47552       47.06033
N         53.97689       30.52122       47.84755
C         54.11277       29.08382       47.61489
C         55.37964       28.43048       48.15331
O         55.52280       27.23189       47.95449
H         53.20858       30.82569       48.44443
H         54.03243       28.88903       46.52312
H         53.26320       28.56354       48.10718
N         56.34383       29.12093       48.82530
C         57.60354       28.51404       49.26392
C         57.48349       27.55017       50.45645
O         58.50179       26.99318       50.84336
C         58.65601       29.60315       49.55999
C         58.37449       30.48563       50.74165
N         59.29586       31.40375       51.09842
O         57.33512       30.38787       51.37578
H         56.21677       30.12818       48.94882
H         58.01943       27.94915       48.39959
H         58.77261       30.25289       48.66468
H         59.63113       29.10467       49.74588
H         60.17325       31.50757       50.57250
H         59.14798       32.00531       51.90734
N         56.29680       27.28303       51.07566
C         56.15738       26.30556       52.15345
C         56.51205       26.80534       53.54840
O         56.36234       26.02211       54.47801
H         55.43472       27.70047       50.70608
H         56.73874       25.38975       51.90546
H         55.08990       26.00492       52.20346
N         56.96562       28.06754       53.79354
C         57.28064       28.58556       55.13053
C         56.49614       29.86108       55.42107
O         55.73245       30.30326       54.57113
C         58.81537       28.82339       55.27672
C         59.60428       27.53588       55.02500
O         59.30758       29.86684       54.46773
H         57.10318       28.68972       52.99298
H         56.99890       27.84190       55.90973
H         59.02117       29.11497       56.32711
H         58.79899       29.90030       53.62215
H         60.68645       27.71400       55.19545
H         59.26591       26.74244       55.72705
H         59.46179       27.17928       53.98364
N         56.66292       30.53486       56.59268
C         55.98354       31.78531       56.90996
C         57.00867       32.89311       56.80029
O         58.01792       32.84845       57.49474
C         55.35370       31.72368       58.33219
C         54.35611       30.54355       58.45205
C         54.65099       33.05718       58.68016
C         54.02742       30.20175       59.90816
H         57.34603       30.18152       57.28161
H         55.16639       31.98492       56.18133
H         56.18554       31.55194       59.05138
H         54.80185       29.62115       58.02551
H         53.42779       30.76727       57.88066
H         55.36191       33.90711       58.63809
H         53.82366       33.25968       57.96493
H         54.23080       33.04589       59.70503
H         53.56347       31.04969       60.44805
H         53.32443       29.34334       59.93939
H         54.95956       29.90362       60.43685
N         56.80363       33.93170       55.94599
C         57.73953       35.03499       55.78024
C         57.29465       36.20459       56.62344
O         56.26660       36.10308       57.27953
C         57.86799       35.38876       54.28620
C         58.50550       34.24443       53.54447
O         57.91945       33.03277       53.50083
O         59.58394       34.40288       52.99732
H         55.91387       33.97610       55.42570
H         58.74537       34.75636       56.17012
H         58.51514       36.28409       54.16822
H         56.86829       35.63156       53.85995
N         58.06641       37.32229       56.73765
C         57.73606       38.38635       57.67468
C         56.40628       39.04688       57.33374
O         55.60874       39.20299       58.24275
C         58.87592       39.41784       57.83198
C         58.74492       40.17099       59.13849
C         58.87570       39.47237       60.35610
C         58.51118       41.55510       59.16902
C         58.76959       40.14159       61.57551
C         58.40294       42.22224       60.39638
C         58.53236       41.51615       61.59687
H         58.95148       37.37631       56.20822
H         57.63644       37.88721       58.66393
H         58.90647       40.10656       56.96646
H         59.85557       38.89440       57.87426
H         59.06866       38.40640       60.36336
H         58.40828       42.11563       58.24895
H         58.87450       39.59209       62.50275
H         58.21989       43.28815       60.41925
H         58.45172       42.03239       62.54468
N         56.06280       39.42996       56.05904
C         54.74325       39.93697       55.69737
C         53.62000       39.00882       56.14176
O         52.69431       39.46599       56.79831
C         54.79324       40.02443       54.16118
C         56.25299       40.32300       53.91795
C         56.92274       39.36163       54.89441
H         54.62163       40.95185       56.13695
H         54.61258       39.02504       53.70413
H         54.07246       40.74340       53.71612
H         56.59314       40.22556       52.86507
H         56.44673       41.36591       54.26153
H         56.92691       38.31990       54.50606
H         57.95474       39.71875       55.06557
N         53.65093       37.68084       55.82660
C         52.59628       36.73340       56.20007
C         52.47305       36.54662       57.70519
O         51.46203       36.01900       58.14708
C         52.88337       35.34876       55.60066
C         52.88743       35.34872       54.06663
C         53.40430       34.04779       53.53867
O         54.06047       34.06656       52.37439
O         53.53501       33.07641       54.26896
H         54.46293       37.33929       55.28915
H         51.62844       37.11081       55.80299
H         52.13314       34.60264       55.94498
H         53.88390       35.02944       55.97302
H         53.57833       36.13054       53.69295
H         51.88816       35.57960       53.65127
N         53.48444       36.88129       58.54774
C         53.41538       36.68080       59.97598
H         52.58429       37.28105       60.39983
H         53.26084       35.60469       60.20168
H         54.36892       37.00732       60.44511
H         54.34916       37.26261       58.16541
Ca        55.93329       32.92228       52.51948
O         54.22505       29.09249       52.63126
H         53.67943       28.53998       52.01887
H         53.71832       29.08738       53.48050

Ca 1.0



