%chk=holoCaM.loop1.water2.frame204.chk
%nprocshared=20
%mem=10GB
%nosave
#b3lyp/svp scf=(tight,noincore,xqc) Test 
#IOP(5/87=12) Density=Current Pop=(MK,readradii) iop(6/33=2) iop(6/42=6)

holoCaM.loop1.water2.frame204 

   0  1 
C         29.88351       56.39913      102.03597
C         29.78595       55.52280      103.24493
O         29.32558       55.97974      104.28115
H         30.94212       56.46567      101.71092
H         29.27511       55.96002      101.21690
H         29.50370       57.41900      102.25636
N         30.18108       54.22301      103.16594
C         30.05984       53.28746      104.27451
C         30.98759       53.69666      105.41599
O         32.19207       53.50461      105.32679
C         30.34418       51.86586      103.75063
C         30.11261       50.75869      104.72263
O         29.68920       50.99135      105.97351
O         30.29861       49.61475      104.35532
H         30.52909       53.88059      102.25624
H         28.99949       53.31371      104.61508
H         31.39326       51.80737      103.38915
H         29.66525       51.67415      102.89056
N         30.47288       54.35857      106.48828
C         31.26268       54.90505      107.58980
C         31.68602       53.83546      108.60210
O         32.43041       54.16907      109.51298
C         30.43331       56.05647      108.21923
C         31.12154       56.89988      109.30410
C         30.37615       58.23064      109.56044
C         28.90783       58.07360      109.99496
N         28.28180       59.38160      110.19647
H         29.47671       54.60230      106.44220
H         32.17685       55.37288      107.16107
H         29.48409       55.64899      108.62663
H         30.19210       56.74535      107.37815
H         32.14259       57.17198      108.95979
H         31.20812       56.31459      110.24407
H         30.40173       58.83403      108.62587
H         30.92648       58.79501      110.34412
H         28.85417       57.48584      110.93655
H         28.33562       57.53772      109.21122
H         28.29898       59.93053      109.30536
H         27.28630       59.24544      110.48500
H         28.78096       59.91215      110.94620
N         31.25318       52.53922      108.51733
C         31.60374       51.49366      109.48167
C         32.28562       50.28477      108.83950
O         32.66182       49.38324      109.57686
C         30.31380       51.00826      110.17029
C         29.60632       52.13182      110.86964
O         30.20391       52.77972      111.88709
O         28.48765       52.46509      110.51592
H         30.59927       52.28381      107.77100
H         32.29861       51.89269      110.25318
H         30.54123       50.21679      110.91730
H         29.64153       50.57065      109.39818
N         32.44804       50.16104      107.49013
C         33.01281       48.97771      106.85469
C         32.21573       47.72952      107.18261
O         32.79534       46.75673      107.64347
H         32.13881       50.91625      106.86507
H         34.07422       48.84887      107.16052
H         32.98938       49.12549      105.75308
N         30.86587       47.71254      107.00289
C         30.00048       46.58000      107.33010
C         29.09047       46.18003      106.16134
O         28.21598       45.34756      106.35857
C         29.20046       46.90213      108.61674
C         28.28840       48.09822      108.57491
O         27.58961       48.42484      109.67763
O         28.18092       48.78633      107.57654
H         30.42238       48.57862      106.67425
H         30.60578       45.68353      107.58939
H         29.93103       47.07591      109.43678
H         28.59182       46.01407      108.89210
N         29.26256       46.69228      104.90687
C         28.44403       46.34075      103.75284
C         27.03230       46.91340      103.75716
O         26.32904       46.67469      102.78576
H         30.06636       47.30193      104.72694
H         28.41025       45.23410      103.64681
H         28.93774       46.74724      102.84323
N         26.53644       47.65645      104.78985
C         25.17596       48.19672      104.82989
C         25.20598       49.71477      105.18998
O         25.70708       49.78853      106.49097
C         24.32032       47.38732      105.85648
C         24.08141       45.94066      105.41182
O         24.88193       47.40512      107.14746
H         27.12908       47.81495      105.60959
H         24.68681       48.09519      103.83578
H         23.31419       47.85335      105.92315
H         25.69847       46.84021      107.14190
H         23.55650       45.92436      104.43391
H         25.03944       45.38723      105.32220
H         23.44433       45.42690      106.16348
N         23.84118       50.28491      105.16526
C         23.73025       51.76490      105.17523
C         22.47995       52.14923      105.97301
O         21.41457       51.59158      105.74247
C         23.66902       52.37231      103.72644
C         24.97226       52.15551      102.90858
C         23.30761       53.87570      103.73325
C         26.22637       52.83100      103.48479
H         23.27705       49.89698      104.37259
H         24.59763       52.21516      105.69863
H         22.84467       51.86787      103.17507
H         24.81457       52.56113      101.88429
H         25.17057       51.06993      102.80106
H         22.31013       54.04516      104.18822
H         24.04788       54.47106      104.29776
H         23.25322       54.26786      102.69514
H         26.10246       53.93056      103.56381
H         26.48263       52.42189      104.48012
H         27.08779       52.64401      102.81011
N         22.54551       53.16002      106.88875
C         21.44830       53.66223      107.71097
C         21.12329       55.09274      107.32084
O         21.71965       55.61413      106.38989
C         21.85921       53.64416      109.21561
C         22.06534       52.22574      109.74726
O         22.98591       54.46563      109.43660
H         23.43327       53.66039      106.97708
H         20.52873       53.05075      107.57463
H         21.04339       54.05270      109.84370
H         23.80305       53.90596      109.44568
H         22.35001       52.26738      110.82115
H         21.12526       51.64317      109.65241
H         22.86471       51.72792      109.17437
N         20.20213       55.80593      108.01424
C         19.93742       57.22685      107.80892
C         21.19199       58.06852      108.07265
O         21.52850       58.88688      107.23064
C         18.75674       57.68830      108.69830
C         17.44895       57.00905      108.24800
O         19.02322       57.39518      110.04730
H         19.68027       55.31705      108.75847
H         19.62672       57.40307      106.75286
H         18.63326       58.78782      108.57309
H         18.25861       57.73693      110.57966
H         17.50477       55.90477      108.34397
H         16.59786       57.36841      108.86270
H         17.23602       57.25974      107.18637
N         21.94704       57.89961      109.20303
C         23.15735       58.68475      109.50828
C         24.29180       58.53155      108.48600
O         25.29464       59.21577      108.64342
C         23.71000       58.31591      110.91482
C         22.97127       58.98746      112.08709
C         21.48755       58.62844      112.23120
C         20.83551       59.30550      113.45165
N         20.81822       60.76742      113.34147
H         21.64251       57.18242      109.87638
H         22.89630       59.76553      109.50805
H         24.74904       58.70149      111.01291
H         23.76761       57.21079      111.03203
H         23.07904       60.08334      111.95299
H         23.49567       58.70089      113.02576
H         21.39992       57.52726      112.35570
H         20.92696       58.93617      111.32536
H         21.36582       59.00561      114.38271
H         19.78643       58.94359      113.52440
H         20.34065       61.05822      112.45749
H         20.29185       61.16315      114.15327
H         21.78580       61.15909      113.37004
N         24.21833       57.69726      107.41678
C         25.27373       57.53863      106.42325
C         24.78861       58.04704      105.07599
O         25.43871       58.91676      104.51352
C         25.66456       56.05776      106.36682
C         26.41062       55.62772      107.64098
C         26.54216       54.14397      107.65683
O         27.70764       53.52150      107.46484
O         25.54744       53.46013      107.78635
H         23.38051       57.12469      107.28953
H         26.18471       58.12552      106.68099
H         26.33166       55.85822      105.49832
H         24.73759       55.46325      106.23405
H         25.87036       55.92706      108.56523
H         27.40674       56.11070      107.62949
N         23.64300       57.57535      104.51002
C         23.10984       58.04772      103.24876
H         22.11582       58.51220      103.42403
H         23.76678       58.79905      102.76372
H         22.98423       57.18780      102.55858
H         23.10054       56.86041      104.99931
Ca        27.17949       51.43183      106.91781
O         25.78902       51.70533      110.81963
H         24.87702       51.92587      111.13314
H         26.16933       51.13894      111.53744
O         24.44595       49.88374      108.91618
H         24.00513       49.76508      109.79332
H         25.22461       49.27738      108.95215

Ca 1.0



