%chk=holoCaM.loop4.water3.frame414.chk
%nprocshared=20
%mem=10GB
%nosave
#b3lyp/svp scf=(tight,noincore,xqc) Test 
#IOP(5/87=12) Density=Current Pop=(MK,readradii) iop(6/33=2) iop(6/42=6)

holoCaM.loop4.water3.frame414 

   -3  1 
C         89.14956       66.42104       57.23565
C         88.05196       65.72905       57.98381
O         87.13322       65.24421       57.34320
H         90.09763       65.86009       57.36172
H         88.90969       66.47663       56.14977
H         89.26634       67.45457       57.62026
N         88.06726       65.67091       59.35106
C         87.00359       65.04292       60.13323
C         87.13038       65.33495       61.62893
O         88.16115       65.03865       62.21483
C         86.94468       63.52567       59.87831
C         85.84194       62.86638       60.65125
O         86.05624       61.67764       61.24315
O         84.73535       63.37542       60.69884
H         88.84238       66.13628       59.84546
H         86.05714       65.47133       59.78222
H         87.91245       63.04609       60.13310
H         86.73254       63.34018       58.80760
N         86.08415       65.90807       62.30253
C         86.08402       66.26644       63.71667
C         84.95642       65.59438       64.53061
O         84.95169       65.79815       65.73711
C         86.08694       67.82733       63.86086
C         84.93150       68.51447       63.07273
C         87.45029       68.37484       63.38755
C         84.88991       70.04054       63.19837
H         85.23733       66.13642       61.78092
H         87.01495       65.89582       64.19796
H         86.00206       68.06213       64.94462
H         83.94885       68.10561       63.38964
H         85.05882       68.30193       61.99617
H         87.59497       69.41741       63.73806
H         88.28663       67.78144       63.81279
H         87.52978       68.34849       62.27914
H         84.09323       70.44334       62.53533
H         84.67646       70.33873       64.24393
H         85.84201       70.50348       62.86574
N         83.98964       64.78721       63.98318
C         82.95396       64.10282       64.78827
C         82.77963       62.60277       64.46961
O         82.04573       61.94162       65.19130
C         81.62157       64.87582       64.68991
C         81.10629       65.08302       63.30868
O         81.57177       64.47141       62.36982
O         80.12211       65.97561       63.10775
H         83.95786       64.69667       62.96129
H         83.23170       64.14917       65.86380
H         81.80435       65.88539       65.10929
H         80.81581       64.39203       65.28435
N         83.42911       61.99306       63.43730
C         83.34391       60.57407       63.10158
C         81.98343       60.14389       62.59444
O         81.52209       59.08027       62.98147
H         84.05390       62.55036       62.85347
H         83.65420       59.94831       63.96659
H         84.06341       60.37668       62.28070
N         81.31493       60.89093       61.67388
C         79.97178       60.55383       61.17783
C         79.93743       60.05281       59.73813
O         78.86681       59.65195       59.29872
C         79.01021       61.76171       61.29847
C         79.41538       62.96381       60.47559
O         80.66929       63.03511       59.96285
O         78.63742       63.89233       60.37228
H         81.79073       61.74379       61.36191
H         79.55474       59.72899       61.79406
H         78.93348       62.09227       62.35639
H         77.99788       61.43224       60.97633
N         81.03787       60.03475       58.93857
C         80.98602       59.60238       57.54804
C         80.34416       60.62181       56.61467
O         80.24660       60.33244       55.43075
H         81.94362       60.32470       59.32339
H         80.47854       58.61454       57.48585
H         82.02491       59.47017       57.17845
N         79.94735       61.85186       57.05600
C         79.45809       62.92646       56.20145
C         80.37313       64.13365       56.27748
O         81.32759       64.11492       57.04304
C         78.04499       63.36940       56.62426
C         77.05384       62.20536       56.62853
C         75.62605       62.66560       56.47135
N         74.68940       61.77846       56.07030
O         75.31923       63.84014       56.62484
H         80.03028       62.06464       58.04249
H         79.42927       62.58706       55.14328
H         77.71432       64.10544       55.86163
H         78.03620       63.87563       57.61637
H         77.17801       61.57530       57.53966
H         77.27516       61.57960       55.74152
H         74.94654       60.79739       55.88641
H         73.72194       62.08266       55.89083
N         80.12331       65.23577       55.50441
C         80.92566       66.44741       55.56240
C         80.02742       67.62966       55.92362
O         79.09117       67.94320       55.20277
C         81.65327       66.72236       54.22485
C         82.75274       67.77548       54.43794
C         82.28112       65.45333       53.63354
H         79.33587       65.21871       54.84208
H         81.71919       66.31616       56.33536
H         80.92170       67.10284       53.47964
H         82.33690       68.70167       54.87921
H         83.54250       67.38579       55.11926
H         83.22193       68.03182       53.46683
H         82.86110       65.70703       52.72098
H         82.95129       64.95570       54.36606
H         81.48131       64.74385       53.33152
N         80.28309       68.31963       57.05623
C         79.58480       69.48861       57.55465
C         80.04453       70.68633       56.75923
O         81.05159       70.59574       56.09049
C         79.99209       69.68014       59.05301
C         79.19086       70.67580       59.84787
N         77.87085       70.48216       60.04365
O         79.74177       71.62380       60.38411
H         81.07689       68.01000       57.57063
H         78.49228       69.30583       57.47333
H         81.07661       69.92506       59.11342
H         79.85381       68.72269       59.58527
H         77.40159       69.65453       59.65122
H         77.32941       71.14481       60.61702
N         79.37591       71.85508       56.79980
C         79.88096       73.08567       56.19724
C         81.18433       73.58107       56.86756
O         81.91235       74.33310       56.23519
C         78.79092       74.19140       56.17589
C         78.44060       74.75220       57.54759
C         77.79484       73.99011       58.54742
C         78.76830       76.08704       57.84227
C         77.55029       74.51729       59.80725
C         78.50748       76.61970       59.10914
C         77.91586       75.82497       60.10133
O         77.69420       76.30135       61.34042
H         78.46011       71.80878       57.22909
H         80.11760       72.84467       55.13456
H         77.87288       73.80800       55.67952
H         79.18194       75.01083       55.53190
H         77.45290       72.98920       58.41414
H         79.23899       76.71531       57.09600
H         77.07793       73.89515       60.55764
H         78.77588       77.64534       59.32030
H         77.98046       77.18388       61.60909
N         81.53325       73.20998       58.14052
C         82.78285       73.59947       58.80979
C         83.93492       72.66811       58.46989
O         85.07844       73.07946       58.60941
C         82.62403       73.66049       60.35483
C         81.85583       74.89875       60.83764
C         82.58234       76.15522       60.43503
O         82.02711       76.99248       59.74297
O         83.86526       76.34257       60.80536
H         80.88114       72.61968       58.65623
H         83.09755       74.59544       58.43606
H         83.62547       73.70806       60.83791
H         82.14085       72.73069       60.73163
H         81.79993       74.87611       61.94867
H         80.82019       74.89734       60.43646
N         83.72150       71.39682       58.05163
C         84.78475       70.49542       57.61825
C         85.10106       70.76375       56.15309
O         86.26062       70.72957       55.76905
C         84.31697       69.03680       57.81081
C         84.15669       68.67781       59.30404
C         83.42042       67.37969       59.45597
O         83.93480       66.24395       59.90312
O         82.26778       67.33662       59.14667
H         82.75175       71.05901       57.99478
H         85.70823       70.62197       58.22813
H         85.05776       68.32932       57.37515
H         83.35644       68.90635       57.26866
H         83.54441       69.44430       59.83064
H         85.16029       68.64459       59.77253
N         84.08976       71.00975       55.27734
C         84.23118       71.24141       53.85977
H         85.28795       71.36280       53.55493
H         83.78154       70.38427       53.31788
H         83.65708       72.15167       53.57869
H         83.14335       71.03811       55.63509
Ca        82.32522       64.61951       59.93175
O         83.33697       62.21203       58.40451
H         83.86433       61.45581       58.76354
H         83.29164       62.04484       57.43042
O         84.12418       64.78727       57.56358
H         84.77414       65.52331       57.46208
H         84.27467       64.20628       56.77838
O         80.07121       66.31163       59.81956
H         79.15847       65.98906       59.65665
H         80.14015       66.43399       60.79546

Ca 1.0



