%chk=holoCaM.loop4.water3.frame137.chk
%nprocshared=20
%mem=10GB
%nosave
#b3lyp/svp scf=(tight,noincore,xqc) Test 
#IOP(5/87=12) Density=Current Pop=(MK,readradii) iop(6/33=2) iop(6/42=6)

holoCaM.loop4.water3.frame137 

   -3  1 
C         22.18083      120.89343       99.89032
C         21.16001      120.84626      100.98256
O         20.59020      119.78715      101.19344
H         23.01589      120.21739      100.18493
H         21.75373      120.53878       98.93229
H         22.59790      121.91351       99.77044
N         20.96484      121.92656      101.79439
C         20.31458      121.79747      103.08819
C         19.36468      122.93848      103.45197
O         19.57816      124.07732      103.06191
C         21.45682      121.75558      104.10861
C         20.96861      121.55610      105.48845
O         20.36005      120.53762      105.77797
O         21.19800      122.51551      106.40505
H         21.50277      122.78680      101.61074
H         19.76422      120.83369      103.15967
H         22.02583      122.70840      104.06103
H         22.14965      120.92197      103.87206
N         18.33492      122.66755      104.31055
C         17.41158      123.63225      104.90378
C         17.23776      123.44003      106.43517
O         16.60473      124.30036      107.03161
C         16.01741      123.54334      104.19840
C         15.40500      122.12344      104.31405
C         16.16430      123.95104      102.71690
C         13.95259      122.00431      103.85658
H         18.19917      121.69062      104.54847
H         17.80968      124.66031      104.74746
H         15.33269      124.26699      104.69236
H         15.44256      121.76148      105.36327
H         16.00211      121.45243      103.69103
H         15.19317      123.94802      102.18596
H         16.57840      124.97799      102.64294
H         16.84757      123.25659      102.18085
H         13.64339      120.93737      103.90893
H         13.29668      122.59599      104.52716
H         13.81476      122.33642      102.80971
N         17.66901      122.32457      107.12049
C         17.35995      122.06118      108.53830
C         18.56977      121.65470      109.40494
O         18.42632      121.61815      110.61844
C         16.21657      121.02742      108.60357
C         16.51604      119.71280      107.94022
O         17.76996      119.37296      107.59034
O         15.59711      118.94735      107.70061
H         18.11709      121.56876      106.60077
H         16.96125      122.99024      108.99984
H         15.35938      121.47724      108.05768
H         15.88912      120.83641      109.64844
N         19.78999      121.38219      108.86571
C         21.02153      121.17543      109.61978
C         21.02431      119.90725      110.44300
O         21.03438      119.99104      111.66174
H         19.86464      121.38646      107.86084
H         21.18608      122.06615      110.26055
H         21.88002      121.11403      108.91174
N         21.04813      118.69276      109.82461
C         20.98815      117.40206      110.53050
C         22.12808      116.43485      110.22571
O         22.26795      115.47635      110.97373
C         19.66225      116.67125      110.21784
C         19.44575      116.35783      108.75523
O         19.74112      117.29480      107.82669
O         18.79813      115.37180      108.44934
H         21.08915      118.72837      108.80270
H         21.00717      117.59074      111.62607
H         18.81055      117.29848      110.55142
H         19.60925      115.72488      110.80317
N         22.89241      116.53265      109.10285
C         23.87738      115.53620      108.70681
C         23.47859      114.79270      107.43331
O         24.28541      114.00129      106.96684
H         22.74536      117.31401      108.46196
H         24.02660      114.76759      109.49833
H         24.85059      116.05003      108.56041
N         22.24280      114.93051      106.85406
C         21.77303      114.09629      105.74378
C         20.79432      114.80406      104.83564
O         19.79654      115.29771      105.32705
C         20.97885      112.88832      106.26728
C         21.87368      111.83604      106.90879
C         21.13769      110.52619      107.00701
N         20.02169      110.40007      107.75926
O         21.54711      109.56645      106.37055
H         21.55182      115.53063      107.31638
H         22.62313      113.72131      105.13255
H         20.50345      112.40435      105.38184
H         20.16133      113.20824      106.95653
H         22.23828      112.17945      107.89931
H         22.74891      111.67594      106.24200
H         19.65308      111.19562      108.29903
H         19.52289      109.49862      107.79483
N         20.92368      114.73192      103.48025
C         19.88263      115.20833      102.57159
C         18.63298      114.35898      102.74962
O         18.74139      113.14900      102.59412
C         20.34158      115.17349      101.08229
C         19.25223      115.75735      100.15791
C         21.62930      115.98904      100.88374
H         21.75140      114.25846      103.09001
H         19.67707      116.25908      102.79514
H         20.53928      114.12383      100.76951
H         18.31685      115.16813      100.21887
H         19.02639      116.81240      100.42902
H         19.58642      115.73005       99.09896
H         21.92025      115.99922       99.81293
H         21.48229      117.03602      101.21552
H         22.47460      115.55291      101.45125
N         17.40670      114.91910      103.00361
C         16.18834      114.11685      103.01694
C         15.48586      114.24444      101.67902
O         15.86087      115.08488      100.87840
C         15.28827      114.39641      104.25045
C         14.35874      115.59545      104.19262
N         14.70773      116.81404      104.66053
O         13.21477      115.42662      103.80340
H         17.31942      115.94018      103.05735
H         16.48001      113.04712      103.10051
H         15.88614      114.39640      105.18169
H         14.61126      113.52204      104.36493
H         15.64450      117.00886      105.01535
H         14.01787      117.58139      104.67373
N         14.50454      113.37479      101.33747
C         13.85994      113.35992      100.02674
C         13.15907      114.67742       99.70885
O         13.19272      115.12313       98.57026
C         12.85008      112.18666       99.90746
C         11.61862      112.36187      100.77499
C         10.43347      112.84358      100.19218
C         11.63481      112.09063      102.15670
C          9.30125      113.07512      100.97545
C         10.50025      112.32077      102.93668
C          9.33371      112.82034      102.35320
O          8.25441      113.05536      103.12481
H         14.26514      112.65601      102.02646
H         14.64352      113.18087       99.25578
H         13.33354      111.20589      100.10947
H         12.53417      112.16043       98.84066
H         10.39452      113.06830       99.13342
H         12.51027      111.69773      102.64796
H          8.40524      113.46608      100.51173
H         10.53252      112.11567      103.99940
H          7.43367      113.41699      102.76198
N         12.41440      115.28632      100.66779
C         11.57817      116.46148      100.45513
C         12.43533      117.71516      100.32959
O         12.23487      118.50967       99.42273
C         10.58170      116.55854      101.62611
C          9.35846      117.40652      101.26635
C          8.34089      117.44183      102.37411
O          8.54428      116.78416      103.53384
O          7.30560      118.06724      102.21558
H         12.39309      114.83963      101.59331
H         10.97333      116.29093       99.53689
H         11.09119      116.91947      102.54645
H         10.19237      115.53825      101.83187
H          8.86707      116.95562      100.37305
H          9.67546      118.43906      101.01964
N         13.48980      117.87475      101.17807
C         14.53590      118.89353      101.06854
C         15.10357      118.92401       99.66188
O         15.23785      120.00905       99.11318
C         15.59801      118.58109      102.14717
C         16.92980      119.33058      102.09111
C         17.63717      119.07621      103.39897
O         18.47697      118.05514      103.54608
O         17.26016      119.63017      104.41233
H         13.61271      117.14611      101.89560
H         14.12933      119.90711      101.28747
H         15.85250      117.49933      102.13128
H         15.10351      118.81858      103.11152
H         16.78324      120.41806      101.95334
H         17.52913      118.96136      101.22965
N         15.38582      117.77500       98.99053
C         15.85056      117.74358       97.61920
H         16.82998      117.22656       97.57742
H         15.11904      117.18452       96.99665
H         15.96414      118.75943       97.18560
H         15.22165      116.87378       99.45113
Ca        19.09018      117.70471      105.69256
O         17.08780      116.36298      106.63483
H         16.86702      116.90062      107.43100
H         16.91624      115.42964      106.89445
O         21.29957      118.32362      103.86984
H         22.22810      118.52870      103.60240
H         20.80721      118.28927      103.01971
O         22.26830      118.42536      106.37747
H         22.88811      117.85124      105.86163
H         22.85874      119.02518      106.89745

Ca 1.0



