%chk=holoCaM.loop2.water2.frame291.chk
%nprocshared=20
%mem=10GB
%nosave
#b3lyp/svp scf=(tight,noincore,xqc) Test 
#IOP(5/87=12) Density=Current Pop=(MK,readradii) iop(6/33=2) iop(6/42=6)

holoCaM.loop2.water2.frame291 

   -2  1 
C         35.12922       65.70262       61.90378
C         35.85900       64.78200       60.96649
O         35.93869       63.59521       61.24278
H         34.07623       65.36082       62.00418
H         35.61175       65.69763       62.90160
H         35.11302       66.74499       61.51912
N         36.38503       65.25985       59.80720
C         36.97014       64.40368       58.78401
C         38.24509       63.70192       59.23656
O         39.19724       64.36724       59.61878
C         37.25272       65.22825       57.51640
C         37.70470       64.33234       56.40615
O         38.77410       64.52291       55.85152
O         36.93345       63.29145       56.04300
H         36.28692       66.26795       59.60827
H         36.20244       63.64777       58.50608
H         38.01069       66.01712       57.71871
H         36.31468       65.72487       57.19155
N         38.33939       62.34370       59.13345
C         39.53979       61.56747       59.42068
C         40.03464       60.79840       58.19088
O         41.02684       60.09386       58.31780
C         39.21962       60.57498       60.54387
H         37.51845       61.82247       58.80356
H         40.36373       62.23001       59.76317
H         38.41440       59.87634       60.22576
H         40.11944       59.98041       60.81114
H         38.88004       61.12059       61.44913
N         39.39380       60.85845       56.98332
C         39.77232       60.06815       55.81527
C         40.16169       60.95879       54.63673
O         41.27714       60.80979       54.15592
C         38.66867       59.02314       55.50324
C         37.24099       59.51163       55.53491
O         36.82867       60.32345       54.73017
O         36.39167       59.01475       56.45480
H         38.56729       61.45802       56.87866
H         40.67668       59.45339       56.02890
H         38.73467       58.25162       56.30150
H         38.88561       58.51523       54.53836
N         39.32855       61.91041       54.12759
C         39.68090       62.78536       53.01521
C         38.72060       62.67954       51.84300
O         38.90371       63.42184       50.88841
H         38.41431       62.05702       54.56208
H         40.70552       62.57769       52.63798
H         39.66666       63.83330       53.38237
N         37.69073       61.78186       51.81865
C         36.78076       61.62798       50.68390
C         35.80963       62.80263       50.46924
O         34.99715       62.71210       49.55885
C         36.01430       60.28517       50.77717
C         35.00926       60.14365       51.88965
N         34.23216       59.03780       51.92724
O         34.87265       61.01149       52.73725
H         37.59737       61.12089       52.59665
H         37.40194       61.52558       49.76671
H         36.74571       59.45140       50.86423
H         35.46297       60.14734       49.82291
H         34.33452       58.29856       51.21785
H         33.50676       58.92360       52.64199
N         35.84652       63.94339       51.21987
C         34.98465       65.09607       50.97890
C         33.55066       64.96126       51.47720
O         32.80914       65.91838       51.30676
H         36.57641       64.05661       51.93132
H         34.99823       65.34429       49.89378
H         35.41338       65.96847       51.51709
N         33.07948       63.83693       52.09346
C         31.70076       63.68205       52.56636
C         31.64345       63.18727       54.00399
O         32.32811       62.22831       54.32715
C         30.93211       62.66231       51.69247
C         30.84251       63.10092       50.22845
O         31.46656       61.36464       51.79281
H         33.70944       63.03697       52.19659
H         31.13855       64.63941       52.48271
H         29.88828       62.62051       52.07842
H         32.37227       61.37495       51.39187
H         30.22345       62.37425       49.66240
H         30.36710       64.10271       50.15834
H         31.85213       63.14688       49.76923
N         30.73486       63.70525       54.88140
C         30.47552       63.11914       56.19958
C         30.02255       61.66548       56.03607
O         29.07905       61.39976       55.30409
C         29.41854       63.95915       56.99686
C         30.01803       65.35599       57.32992
C         28.98866       63.23489       58.29383
C         29.08706       66.28412       58.11508
H         30.15202       64.49617       54.56763
H         31.41083       63.13525       56.80147
H         28.50434       64.08070       56.37340
H         30.28326       65.87826       56.38766
H         30.94994       65.22767       57.92378
H         29.85337       63.08896       58.97213
H         28.19832       63.79826       58.82860
H         28.53406       62.24947       58.06660
H         28.14019       66.44926       57.56081
H         28.86490       65.87936       59.12366
H         29.59055       67.26264       58.26570
N         30.63266       60.68798       56.76583
C         30.26000       59.27457       56.77481
C         29.54023       58.94971       58.07472
O         29.35872       59.83852       58.89450
C         31.54136       58.42404       56.63130
C         32.10058       58.47099       55.23717
O         33.19827       59.19559       54.94651
O         31.55333       57.83600       54.34996
H         31.36425       60.97506       57.43068
H         29.54011       59.03499       55.96088
H         31.36258       57.35286       56.86307
H         32.29126       58.78698       57.36933
N         29.04369       57.69940       58.30711
C         28.25139       57.36067       59.48681
C         29.02369       57.57605       60.78558
O         28.47142       58.23458       61.65141
C         27.66941       55.93163       59.39257
C         26.67372       55.64295       60.49541
C         25.47682       56.37923       60.58296
C         26.91947       54.62640       61.43488
C         24.54669       56.10224       61.58875
C         25.98607       54.35458       62.44140
C         24.80056       55.09057       62.51716
H         29.18871       56.97266       57.58834
H         27.37292       58.04450       59.49279
H         28.47672       55.18011       59.40312
H         27.13683       55.81617       58.42409
H         25.25660       57.16194       59.86836
H         27.83150       54.04466       61.39055
H         23.62670       56.67012       61.64548
H         26.17996       53.57068       63.16193
H         24.07736       54.87596       63.29352
N         30.29206       57.09663       61.01217
C         31.06156       57.40081       62.21563
C         31.05789       58.88358       62.55686
O         30.77632       59.24691       63.69052
C         32.49006       56.95146       61.84835
C         32.22056       55.77592       60.94476
C         31.07940       56.30808       60.08365
H         30.66618       56.79385       63.05998
H         32.98960       57.71058       61.20409
H         33.15371       56.75140       62.71626
H         33.09391       55.39968       60.36972
H         31.82912       54.95031       61.58251
H         31.44882       56.97185       59.27406
H         30.55564       55.43382       59.66149
N         31.37919       59.79194       61.59805
C         31.51176       61.23044       61.82595
C         30.18528       61.91215       62.11857
O         30.20215       62.97885       62.71641
C         32.19084       61.86265       60.59447
C         33.62539       61.30566       60.47090
C         34.24687       61.49995       59.13180
O         33.57510       62.07751       58.13024
O         35.30413       60.94480       58.89104
H         31.58825       59.42110       60.65719
H         32.17993       61.39046       62.70157
H         32.23640       62.97189       60.65358
H         31.57944       61.58848       59.70630
H         33.62057       60.20456       60.59303
H         34.26060       61.72166       61.27583
N         29.00019       61.38312       61.71192
C         27.72899       62.01208       61.99532
H         26.90455       61.41543       61.54834
H         27.57218       62.06393       63.09347
H         27.70141       63.03485       61.56371
H         28.99170       60.51419       61.17315
Ca        33.84558       60.85948       56.28822
O         35.28920       64.04056       54.11876
H         34.46961       64.51209       54.40338
H         35.97817       64.75068       54.07433
O         33.69916       65.23587       56.78111
H         34.04273       64.43110       57.24217
H         33.72319       65.94440       57.47143

Ca 1.0



