%chk=holoCaM-CaMKII.loop4.water1.frame240.chk
%nprocshared=20
%mem=10GB
%nosave
#b3lyp/svp scf=(tight,noincore,xqc) Test 
#IOP(5/87=12) Density=Current Pop=(MK,readradii) iop(6/33=2) iop(6/42=6)

holoCaM-CaMKII.loop4.water1.frame240 

   -3  1 
C         74.19965       11.01267       40.02968
C         73.00151       10.31181       39.46795
O         71.99120       10.95187       39.21695
H         75.05687       10.89156       39.33396
H         73.99681       12.09588       40.16483
H         74.46173       10.56743       41.01212
N         73.05908        8.97671       39.22101
C         71.95170        8.22950       38.64622
C         70.75941        8.19216       39.60206
O         70.91287        7.74526       40.72969
C         72.42621        6.81352       38.26120
C         71.34580        6.13093       37.49867
O         71.46977        5.99240       36.17363
O         70.29964        5.84141       38.04570
H         73.94648        8.48529       39.41351
H         71.66220        8.72887       37.69115
H         72.73528        6.20660       39.13812
H         73.30271        6.92597       37.58361
N         69.53495        8.63916       39.19153
C         68.34121        8.69782       40.03725
C         67.19348        7.79387       39.56166
O         66.18568        7.78014       40.25588
C         67.86608       10.17922       40.20833
C         67.61779       10.88187       38.84624
C         68.88397       10.95305       41.06458
C         66.98411       12.26992       38.96295
H         69.45347        8.97740       38.22894
H         68.57703        8.31285       41.05386
H         66.91309       10.16745       40.78256
H         66.93553       10.25796       38.22998
H         68.57958       10.99870       38.30819
H         68.52931       11.97758       41.29181
H         69.02750       10.44023       42.03947
H         69.86272       11.01821       40.55296
H         67.63728       12.97489       39.51517
H         66.83255       12.68935       37.94512
H         65.99875       12.20216       39.46926
N         67.26625        6.97167       38.46677
C         66.20103        6.02051       38.11797
C         66.67272        4.59085       38.38212
O         66.03533        3.92198       39.18513
C         65.60582        6.29717       36.71975
C         66.53188        6.16115       35.54979
O         66.78401        7.13291       34.85532
O         67.00166        4.95399       35.19315
H         68.11658        6.97400       37.89065
H         65.32776        6.16688       38.79326
H         65.21173        7.33763       36.73694
H         64.74236        5.61809       36.54771
N         67.83287        4.09583       37.85613
C         68.44794        2.86771       38.35213
C         69.14841        2.01444       37.31271
O         69.79978        1.06417       37.72502
H         68.39151        4.70315       37.24695
H         67.72898        2.23867       38.92142
H         69.24192        3.18152       39.06363
N         69.09282        2.26210       35.97079
C         69.81684        1.43699       35.00007
C         71.33117        1.69545       34.99532
O         72.02663        1.02679       34.24271
C         69.19116        1.54948       33.58960
C         69.30128        2.88797       32.92176
O         69.94353        3.90450       33.51045
O         68.80990        3.05196       31.81732
H         68.48545        3.01484       35.62691
H         69.65553        0.36999       35.27584
H         68.11345        1.28796       33.67176
H         69.67261        0.80025       32.92446
N         71.92303        2.60099       35.83277
C         73.36568        2.74458       35.96031
C         74.03306        3.63519       34.93066
O         75.23583        3.80973       35.05469
H         71.35058        3.12291       36.50923
H         73.84523        1.74147       35.99020
H         73.57405        3.22703       36.94083
N         73.34887        4.26871       33.93095
C         73.98600        5.23441       33.02966
C         73.37032        6.61435       33.20289
O         72.36055        6.75045       33.86786
C         73.99761        4.73582       31.57210
C         72.61626        4.39501       30.98665
C         72.71024        3.88569       29.56401
N         71.59387        3.48402       28.91536
O         73.78996        3.82285       28.99193
H         72.34177        4.10661       33.83453
H         75.05205        5.36256       33.31532
H         74.61835        3.81312       31.54051
H         74.49255        5.50139       30.93457
H         71.96163        5.29220       31.00779
H         72.15010        3.59349       31.59714
H         70.67478        3.51759       29.37940
H         71.65092        3.12904       27.94884
N         74.01288        7.70943       32.70571
C         73.63206        9.08071       33.03398
C         73.28764        9.83629       31.76287
O         74.11317        9.90820       30.86539
C         74.79901        9.73811       33.83459
C         74.56825       11.22844       34.12901
C         74.99631        9.00577       35.17789
H         74.86962        7.57186       32.15026
H         72.74733        9.10577       33.69816
H         75.73394        9.66027       33.23779
H         75.44205       11.64897       34.67201
H         74.44895       11.80819       33.19133
H         73.67948       11.36875       34.76867
H         75.83842        9.45274       35.74766
H         74.07620        9.08087       35.80082
H         75.22499        7.93170       35.02135
N         72.08467       10.47997       31.66059
C         71.71005       11.32865       30.53427
C         71.79384       12.78234       30.97315
O         72.26899       13.03899       32.06306
C         70.32202       10.94786       29.94274
C         69.11007       11.30435       30.77781
N         68.77856       10.60348       31.88246
O         68.38240       12.21542       30.41097
H         71.44855       10.45889       32.46579
H         72.43780       11.20489       29.70385
H         70.28822        9.87188       29.66954
H         70.22141       11.50357       28.98650
H         69.33363        9.79262       32.17732
H         67.93209       10.84925       32.41861
N         71.38322       13.79380       30.16448
C         71.47358       15.20731       30.52908
C         70.70111       15.51878       31.81095
O         71.28666       16.08430       32.72476
C         70.98081       16.04577       29.33016
C         71.13156       17.54001       29.47763
C         72.38723       18.11884       29.73506
C         70.01673       18.37571       29.29919
C         72.52202       19.50859       29.81082
C         70.15617       19.76446       29.36466
C         71.41092       20.33597       29.61837
O         71.56181       21.67471       29.66934
H         71.00109       13.54994       29.24016
H         72.54514       15.45502       30.69509
H         69.92333       15.78062       29.10952
H         71.58834       15.75415       28.44533
H         73.26552       17.50051       29.86696
H         69.04192       17.95497       29.08610
H         73.49456       19.94317       30.00564
H         69.28993       20.39448       29.20739
H         70.82285       22.28124       29.51785
N         69.39050       15.16411       31.95417
C         68.57565       15.47142       33.13997
C         69.07037       14.81578       34.44289
O         68.51855       15.11870       35.49067
C         67.10299       15.09790       32.83203
C         66.08417       15.54892       33.89325
C         64.67864       15.31248       33.41932
O         64.26677       15.87137       32.41477
O         63.85875       14.49769       34.10999
H         68.94189       14.69064       31.15565
H         68.61615       16.57372       33.28605
H         67.01439       14.00004       32.67119
H         66.83931       15.61154       31.88081
H         66.20667       16.63449       34.09656
H         66.23203       14.98578       34.83671
N         70.13023       13.96219       34.47453
C         70.67912       13.38163       35.69537
C         71.97465       14.10155       36.03460
O         72.08965       14.60430       37.14377
C         70.86017       11.85763       35.52674
C         69.51446       11.16406       35.26700
C         69.64340        9.66995       35.15744
O         68.90307        8.87233       35.94405
O         70.38069        9.16587       34.33042
H         70.60684       13.73048       33.60205
H         69.99503       13.53239       36.56117
H         71.31833       11.43800       36.44962
H         71.52825       11.65533       34.66667
H         69.08710       11.55631       34.32569
H         68.80619       11.40071       36.08498
N         72.95880       14.26174       35.10588
C         74.16307       15.03619       35.32791
H         75.05283       14.40508       35.12828
H         74.17327       15.89699       34.62378
H         74.22885       15.43538       36.36110
H         72.83770       13.86242       34.17230
Ca        69.60256        6.10746       34.93742
O         69.00573        6.56800       31.69218
H         68.45634        5.91213       32.19037
H         68.40948        6.89031       30.97045

Ca 1.0



