%chk=holoCaM.loop3.water2.frame225.chk
%nprocshared=20
%mem=10GB
%nosave
#b3lyp/svp scf=(tight,noincore,xqc) Test 
#IOP(5/87=12) Density=Current Pop=(MK,readradii) iop(6/33=2) iop(6/42=6)

holoCaM.loop3.water2.frame225 

   0  1 
C         30.65586       69.65221        8.71339
C         29.67411       69.03271        9.66199
O         28.59413       68.66601        9.23578
H         31.57708       69.03333        8.67895
H         30.23019       69.71861        7.68939
H         30.91411       70.67432        9.06144
N         30.01651       68.86442       10.96886
C         29.17330       68.26177       12.00567
C         27.99611       69.19366       12.35926
O         28.06227       69.89680       13.35901
C         30.07274       68.00978       13.23684
C         29.47329       67.25343       14.39228
O         28.26100       66.64874       14.36300
O         30.14227       67.17323       15.40891
H         30.97285       69.15555       11.22858
H         28.83779       67.26821       11.65151
H         30.42513       68.99607       13.61213
H         30.97038       67.43299       12.92064
N         26.90852       69.29085       11.54250
C         25.87436       70.31832       11.67750
C         25.03216       70.23293       12.95583
O         24.32105       71.19231       13.21848
C         24.97791       70.29123       10.41062
C         24.09763       71.54109       10.21590
C         23.34781       71.52532        8.87147
C         22.23906       70.46168        8.81043
N         21.56318       70.48884        7.51333
H         26.86627       68.67269       10.72711
H         26.41640       71.29028       11.68729
H         24.37090       69.36166       10.41981
H         25.65207       70.25382        9.52549
H         24.77135       72.42590       10.21031
H         23.36278       71.66681       11.03600
H         24.07505       71.37064        8.04396
H         22.87392       72.52082        8.72776
H         21.49771       70.66640        9.61503
H         22.65738       69.44604        8.96955
H         21.16060       71.43684        7.33119
H         22.23952       70.24114        6.75464
H         20.78800       69.78709        7.51598
N         25.03702       69.14838       13.79206
C         24.23386       69.09358       15.02200
C         25.07376       68.95708       16.28861
O         24.52933       69.19609       17.35812
C         23.13607       68.00267       14.94820
C         23.61963       66.58371       14.79555
O         24.80430       66.32412       14.69947
O         22.72305       65.58011       14.75735
H         25.60911       68.33870       13.53745
H         23.69265       70.05639       15.14424
H         22.46869       68.22453       14.08878
H         22.52519       68.05288       15.87616
N         26.38129       68.56825       16.26735
C         27.22220       68.52058       17.45415
C         27.48209       67.11911       17.97090
O         28.23976       67.00522       18.92456
H         26.81592       68.29712       15.38036
H         26.76087       69.08279       18.29467
H         28.18111       69.02931       17.21553
N         26.84708       66.01512       17.47188
C         26.98021       64.69716       18.09748
C         28.37926       64.10706       17.98310
O         28.66229       63.13552       18.66970
C         25.91177       63.70967       17.57431
C         26.12618       63.23857       16.15201
N         26.21341       61.91611       15.87608
O         26.19894       64.04618       15.24006
H         26.17472       66.13505       16.70692
H         26.75891       64.84953       19.17770
H         24.91630       64.19912       17.64695
H         25.89259       62.82461       18.24607
H         26.14029       61.21065       16.62320
H         26.33352       61.59157       14.90652
N         29.29107       64.62232       17.11391
C         30.65334       64.14241       16.97805
C         30.90789       63.49043       15.63834
O         32.05151       63.12441       15.40371
H         29.00705       65.38871       16.49852
H         30.90478       63.39534       17.76137
H         31.33834       65.00813       17.10808
N         29.90606       63.24288       14.73752
C         30.12900       62.50284       13.50037
C         29.69424       63.28463       12.27810
O         29.07485       64.33318       12.39460
C         29.36921       61.15703       13.53251
C         29.89970       60.21055       14.58285
C         29.72247       60.45762       15.95642
C         30.58479       59.05142       14.18121
C         30.23780       59.56962       16.90551
C         31.10040       58.16806       15.13008
C         30.93178       58.42573       16.49685
O         31.43064       57.58228       17.42225
H         28.93839       63.52249       14.95393
H         31.21190       62.28737       13.36642
H         29.48642       60.67348       12.53962
H         28.28206       61.31631       13.68056
H         29.18342       61.33009       16.29960
H         30.73191       58.83467       13.13026
H         30.09834       59.77208       17.95999
H         31.63318       57.28577       14.79932
H         31.92224       56.78529       17.17684
N         30.03434       62.80546       11.04714
C         29.66874       63.42234        9.78096
C         29.02333       62.35410        8.90641
O         29.61311       61.29396        8.74051
C         30.92465       64.00725        9.07368
C         31.70019       64.95622       10.02621
C         30.49204       64.75323        7.79065
C         33.00361       65.48847        9.42826
H         30.62513       61.95998       11.00288
H         28.97527       64.27340        9.94798
H         31.60212       63.16808        8.79924
H         31.98688       64.39504       10.94103
H         31.05693       65.81089       10.33134
H         29.83071       65.61133        8.04483
H         31.36340       65.13065        7.22213
H         29.94244       64.07985        7.10411
H         33.53707       66.09458       10.18991
H         33.65865       64.64342        9.12579
H         32.81495       66.14221        8.55387
N         27.84905       62.58705        8.26188
C         27.21318       61.62803        7.36579
C         27.32759       62.11592        5.93538
O         27.86108       63.18947        5.71522
C         25.74335       61.43840        7.78195
O         25.05487       62.65755        7.69664
H         27.41957       63.51376        8.34464
H         27.72465       60.64251        7.41539
H         25.71960       61.06514        8.83075
H         25.25115       60.69240        7.12114
H         24.17127       62.51422        8.12466
N         26.87122       61.36437        4.89801
C         26.92221       61.82000        3.51106
C         26.06269       63.05780        3.32738
O         26.52482       64.02335        2.73682
C         26.44528       60.71423        2.56759
H         26.46775       60.43725        5.10406
H         27.97516       62.04538        3.22473
H         26.51804       61.06121        1.51382
H         27.09851       59.82220        2.68112
H         25.39589       60.42563        2.78450
N         24.80798       63.10388        3.86110
C         23.91475       64.25594        3.76360
C         24.59066       65.52853        4.23463
O         24.60972       66.50032        3.49199
C         22.65377       64.00772        4.60369
H         24.48535       62.28215        4.39594
H         23.60254       64.38873        2.70418
H         22.91569       63.86276        5.67499
H         21.95909       64.87061        4.52240
H         22.12846       63.09739        4.24540
N         25.19337       65.57855        5.45279
C         25.88431       66.75888        5.96531
C         26.98113       67.18901        4.99850
O         26.97513       68.33653        4.57564
C         26.44497       66.47810        7.37860
C         25.30849       66.22691        8.40050
C         25.84147       65.92600        9.77070
O         26.57509       64.97310        9.94923
O         25.51406       66.68714       10.82520
H         25.18240       64.72018        6.02214
H         25.16365       67.60191        6.06119
H         27.02786       67.35918        7.71686
H         27.13295       65.60630        7.33436
H         24.68270       65.36720        8.09088
H         24.66073       67.12898        8.45226
N         27.91442       66.30107        4.55916
C         28.93703       66.61177        3.58018
H         29.93725       66.38967        4.00612
H         28.78632       65.97492        2.68139
H         28.91168       67.67401        3.26070
H         27.87715       65.33911        4.90075
Ca        26.83015       66.35938       12.62843
O         26.33636       62.39063       12.01175
H         25.56542       61.90576       12.40025
H         26.88601       61.68329       11.59001
O         23.74646       64.20195       11.62460
H         23.45124       63.34885       12.03071
H         23.72780       64.03104       10.64934

Ca 1.0



