%chk=holoCaM-CaMKII.loop4.water2.frame279.chk
%nprocshared=20
%mem=10GB
%nosave
#b3lyp/svp scf=(tight,noincore,xqc) Test 
#IOP(5/87=12) Density=Current Pop=(MK,readradii) iop(6/33=2) iop(6/42=6)

holoCaM-CaMKII.loop4.water2.frame279 

   -3  1 
C         45.71656       22.43643       88.15183
C         45.40048       21.68334       89.40923
O         44.40942       21.99085       90.05187
H         46.64077       22.05053       87.67072
H         44.87642       22.33123       87.43480
H         45.86828       23.50898       88.39184
N         46.19670       20.65859       89.81036
C         45.95398       19.87837       91.01592
C         46.20201       20.73286       92.25267
O         47.28711       21.28775       92.36586
C         46.90051       18.66958       91.01220
C         46.58825       17.66936       92.07231
O         47.29619       16.69109       92.16327
O         45.52686       17.79875       92.88814
H         46.99660       20.40333       89.20941
H         44.91112       19.48674       90.98414
H         47.95220       19.01507       91.12059
H         46.81230       18.13157       90.04353
N         45.25020       20.87842       93.22115
C         45.42291       21.74273       94.39253
C         45.50690       20.97053       95.71865
O         45.75264       21.61628       96.72660
C         44.36238       22.89468       94.38643
C         42.90754       22.38149       94.54090
C         44.52814       23.72398       93.09813
C         41.84105       23.48245       94.50776
H         44.36597       20.37211       93.10399
H         46.41151       22.24820       94.33226
H         44.58457       23.57040       95.24171
H         42.81928       21.84287       95.50889
H         42.66739       21.68799       93.71804
H         44.24923       23.12057       92.21445
H         43.89622       24.63387       93.11287
H         45.57923       24.06293       92.98522
H         41.80516       23.97338       93.51237
H         40.83933       23.03379       94.67793
H         42.03258       24.24444       95.29100
N         45.39351       19.60543       95.79620
C         45.65393       18.83321       97.02375
C         46.80464       17.81653       96.84469
O         47.15329       17.16011       97.81731
C         44.37097       18.14302       97.54560
C         43.87662       17.08038       96.61378
O         43.88164       15.90841       96.95578
O         43.49084       17.41065       95.37260
H         45.15360       19.08807       94.94665
H         45.97159       19.52408       97.83479
H         43.57131       18.89642       97.71172
H         44.60260       17.67790       98.53076
N         47.47293       17.66867       95.66144
C         48.66502       16.84609       95.47539
C         48.47438       15.33513       95.50754
O         49.16725       14.67466       96.26729
H         47.20477       18.24961       94.85714
H         49.43694       17.15412       96.21438
H         49.07652       17.07078       94.46726
N         47.62601       14.71614       94.63685
C         47.55168       13.26138       94.43104
C         47.77985       12.87143       92.96287
O         47.57876       11.71218       92.62639
C         46.21192       12.70503       94.96167
C         44.95914       13.27976       94.36867
O         43.88391       12.97802       94.86084
O         44.99182       14.20165       93.39428
H         47.01963       15.31555       94.06779
H         48.33292       12.73850       95.02459
H         46.18263       12.92449       96.05108
H         46.18603       11.60033       94.84072
N         48.21719       13.77287       92.03649
C         48.37797       13.48220       90.61915
C         47.05162       13.14104       89.97704
O         46.95019       12.10021       89.34960
H         48.47383       14.71634       92.34047
H         49.11348       12.66049       90.47630
H         48.77702       14.38913       90.11329
N         46.00427       14.00776       90.07954
C         44.64883       13.78817       89.56028
C         43.86954       15.09080       89.65982
O         43.80377       15.66267       90.73989
C         43.85188       12.71212       90.36004
C         44.17647       11.23321       90.07279
C         43.86923       10.81037       88.64752
N         44.12318        9.54437       88.24811
O         43.37320       11.59542       87.85187
H         46.19827       14.90100       90.55736
H         44.69704       13.52214       88.48585
H         42.77040       12.81955       90.11861
H         43.96299       12.91340       91.44487
H         43.55136       10.60545       90.74295
H         45.21885       10.99970       90.33860
H         44.53849        8.86049       88.89623
H         43.90635        9.24982       87.28374
N         43.23478       15.60553       88.56383
C         42.54189       16.88882       88.57458
C         41.04421       16.66784       88.39153
O         40.61324       16.24407       87.32839
C         43.14982       17.80947       87.47964
C         42.47637       19.18889       87.44296
C         44.66057       17.99252       87.70239
H         43.25092       15.07450       87.67947
H         42.69587       17.38942       89.55450
H         43.00667       17.32679       86.48687
H         41.39195       19.09318       87.23029
H         42.61410       19.71791       88.40894
H         42.92404       19.80633       86.63464
H         44.84468       18.47401       88.68278
H         45.19073       17.01665       87.68205
H         45.09857       18.62680       86.90305
N         40.19835       16.90887       89.43507
C         38.74720       16.72370       89.39599
C         38.07923       17.83137       88.57603
O         38.76015       18.74991       88.14446
C         38.23850       16.71529       90.86766
C         36.77605       16.41113       91.06671
N         36.24508       15.23912       90.64900
O         36.06488       17.22611       91.63459
H         40.62137       17.18624       90.33021
H         38.53174       15.72931       88.94825
H         38.47012       17.69780       91.33078
H         38.80339       15.93741       91.42723
H         36.82788       14.53204       90.17936
H         35.24452       15.03943       90.79688
N         36.73388       17.81411       88.33984
C         36.00370       18.89103       87.67008
C         36.12170       20.18388       88.45437
O         36.38921       21.21854       87.86139
C         34.50583       18.53319       87.55028
C         33.73175       19.63989       86.86621
C         34.00444       19.98089       85.53000
C         32.74620       20.35506       87.56794
C         33.30539       21.01973       84.90864
C         32.05075       21.39587       86.94525
C         32.32879       21.73170       85.61234
O         31.66766       22.73465       85.00008
H         36.19215       17.00327       88.66628
H         36.41010       19.03283       86.64435
H         34.10011       18.35776       88.57181
H         34.38192       17.59210       86.97306
H         34.75964       19.44504       84.96918
H         32.52368       20.11699       88.60076
H         33.52624       21.27365       83.87946
H         31.29940       21.94270       87.50090
H         30.98734       23.25395       85.45200
N         35.91823       20.18810       89.80033
C         36.06233       21.37506       90.63353
C         37.46201       21.94198       90.48193
O         37.59502       23.12361       90.19412
C         35.78812       21.04870       92.12253
C         34.34064       20.58310       92.36602
C         34.08728       20.34365       93.82754
O         33.75194       19.23762       94.22091
O         34.20884       21.35419       94.70986
H         35.69369       19.29176       90.25069
H         35.32368       22.14734       90.32076
H         35.95826       21.97387       92.71789
H         36.49625       20.26913       92.48273
H         34.13796       19.64558       91.80693
H         33.63117       21.36036       92.01039
N         38.55618       21.14247       90.64217
C         39.92637       21.64702       90.54320
C         40.26349       22.16840       89.14792
O         41.26821       22.85103       89.00328
C         40.96199       20.56784       90.93338
C         40.69305       19.97114       92.32395
C         41.77813       19.03560       92.75272
O         42.39984       19.24776       93.92138
O         42.07509       18.06258       92.08087
H         38.39118       20.15055       90.85839
H         40.01370       22.48913       91.26627
H         41.97183       21.03495       90.92705
H         40.94888       19.74647       90.18309
H         39.74789       19.39921       92.33077
H         40.60432       20.78709       93.07051
N         39.49176       21.86335       88.06951
C         39.76076       22.35138       86.73617
H         39.69534       23.45943       86.71920
H         40.76690       22.02326       86.40289
H         39.00298       21.94458       86.03037
H         38.69060       21.24228       88.18667
Ca        43.51906       15.81235       93.82394
O         40.64431       16.77326       94.73944
H         40.08063       16.17184       94.19155
H         40.78673       16.28186       95.58712
O         41.46030       14.26778       92.32469
H         40.78960       13.68700       91.88694
H         41.99165       13.65009       92.88722

Ca 1.0



