%chk=holoCaM.loop3.water2.frame403.chk
%nprocshared=20
%mem=10GB
%nosave
#b3lyp/svp scf=(tight,noincore,xqc) Test 
#IOP(5/87=12) Density=Current Pop=(MK,readradii) iop(6/33=2) iop(6/42=6)

holoCaM.loop3.water2.frame403 

   0  1 
C         76.97840       70.83784        4.07055
C         76.57221       70.39297        5.44088
O         75.63669       69.61398        5.56440
H         78.02658       70.52275        3.88017
H         76.32502       70.37753        3.29885
H         76.90682       71.94198        3.99772
N         77.26395       70.82852        6.52997
C         76.97070       70.34874        7.86980
C         75.57982       70.79717        8.32248
O         75.33138       71.99206        8.40142
C         78.05171       70.82124        8.87549
C         77.95514       70.06365       10.16986
O         78.72505       70.29052       11.08374
O         77.08709       69.04553       10.24748
H         78.06397       71.46413        6.38493
H         77.03339       69.23688        7.82067
H         77.96363       71.91492        9.04911
H         79.06196       70.60730        8.46248
N         74.62660       69.87410        8.63530
C         73.26447       70.20245        9.05810
C         73.21351       71.01427       10.34014
O         72.61094       72.07893       10.31958
C         72.43534       68.91247        9.27685
C         72.09548       68.15119        7.98246
C         71.06644       68.91096        7.12497
C         70.64165       68.09960        5.89659
N         69.60464       68.80697        5.14394
H         74.88118       68.88100        8.54496
H         72.77635       70.81299        8.27124
H         71.46988       69.15671        9.77502
H         72.99728       68.24284        9.96489
H         71.63229       67.18514        8.28058
H         73.01490       67.92785        7.40039
H         71.47677       69.88106        6.77855
H         70.16425       69.10759        7.74582
H         70.24269       67.11287        6.22094
H         71.52497       67.92689        5.24277
H         69.33649       68.23814        4.30899
H         68.75752       68.94319        5.74315
H         69.95927       69.73709        4.82289
N         73.77593       70.56755       11.49959
C         73.59534       71.26164       12.77741
C         74.81504       72.06475       13.19119
O         74.75428       72.71585       14.22625
C         73.14054       70.26588       13.87305
C         74.15846       69.22193       14.25445
O         73.85158       68.30807       15.19417
O         75.26181       69.19897       13.73938
H         74.33666       69.70327       11.47151
H         72.77913       72.01059       12.68256
H         72.22097       69.74899       13.52386
H         72.88572       70.83241       14.79470
N         75.93866       72.11452       12.42237
C         77.08523       72.93508       12.75817
C         77.71013       72.51122       14.06112
O         77.82777       73.33759       14.95434
H         75.98620       71.58179       11.54295
H         76.77648       74.00364       12.80374
H         77.84930       72.83763       11.95756
N         78.15098       71.23140       14.22558
C         78.82897       70.76547       15.43384
C         80.26350       70.33267       15.14973
O         80.98024       70.04430       16.09990
C         78.02300       69.62905       16.09909
C         78.08884       68.31597       15.34552
N         78.55700       67.19873       15.94770
O         77.72057       68.25479       14.18548
H         78.00148       70.57110       13.45281
H         78.88108       71.60281       16.16308
H         76.96392       69.95248       16.20212
H         78.42218       69.46942       17.12364
H         78.87002       67.21513       16.92862
H         78.60049       66.30819       15.43094
N         80.74865       70.24365       13.87621
C         82.10609       69.87150       13.54078
C         82.19072       68.55858       12.78710
O         83.28047       68.25196       12.33250
H         80.14318       70.45381       13.07574
H         82.75017       69.78208       14.44261
H         82.52741       70.68351       12.90919
N         81.12942       67.69060       12.68598
C         81.26710       66.36652       12.07283
C         80.17901       66.08636       11.04744
O         79.17493       66.77573       11.01713
C         81.19572       65.25881       13.15046
C         82.27231       65.36937       14.20761
C         82.25652       66.40709       15.15885
C         83.29962       64.41245       14.26329
C         83.25693       66.49403       16.13031
C         84.29963       64.50177       15.23524
C         84.28269       65.54528       16.17112
O         85.24184       65.64336       17.11329
H         80.23402       67.92450       13.13426
H         82.24749       66.28663       11.55672
H         81.30174       64.28195       12.62907
H         80.20249       65.25556       13.65047
H         81.46877       67.14785       15.16110
H         83.33299       63.59893       13.54940
H         83.23228       67.29951       16.85378
H         85.08665       63.75895       15.25883
H         85.96848       65.00702       17.17490
N         80.33426       65.03901       10.17780
C         79.30170       64.57364        9.25415
C         79.26790       63.04363        9.28702
O         80.22842       62.41617        8.86546
C         79.55137       65.13213        7.81242
C         79.28688       66.66484        7.80026
C         78.66503       64.42439        6.76970
C         79.46578       67.33935        6.43761
H         81.23364       64.53648       10.17965
H         78.30625       64.94230        9.58261
H         80.60684       64.93112        7.52255
H         79.98630       67.15880        8.50519
H         78.24611       66.86503        8.14070
H         78.89198       63.34322        6.73622
H         77.59276       64.57145        6.99794
H         78.87896       64.78266        5.74393
H         80.49167       67.16979        6.05099
H         78.72164       66.97178        5.70135
H         79.29550       68.43134        6.54477
N         78.17354       62.38136        9.76950
C         78.03029       60.92225        9.74130
C         77.85343       60.41445        8.31110
O         77.83743       61.21649        7.39499
C         76.82530       60.49747       10.60611
O         75.62482       61.01284       10.09215
H         77.41618       62.93987       10.18249
H         78.93458       60.46082       10.19540
H         76.99091       60.83514       11.65686
H         76.73991       59.39203       10.65223
H         75.31758       61.72684       10.70937
N         77.70699       59.08640        8.03864
C         77.49666       58.57331        6.68336
C         76.17822       59.05977        6.09833
O         76.18522       59.65872        5.03236
C         77.51256       57.04133        6.68018
H         77.75888       58.41594        8.82068
H         78.33801       58.90528        6.03344
H         78.48923       56.67495        7.06059
H         76.70301       56.62872        7.31835
H         77.37914       56.66404        5.64291
N         75.00470       58.83163        6.75560
C         73.69084       59.24857        6.26269
C         73.65653       60.73561        5.98533
O         73.23223       61.14461        4.91382
C         72.61467       58.90923        7.30470
H         75.05379       58.35200        7.66798
H         73.44448       58.69783        5.32823
H         72.60061       57.81587        7.49757
H         72.81306       59.43436        8.26491
H         71.61104       59.21316        6.93682
N         74.13322       61.59546        6.91926
C         74.16071       63.04637        6.78540
C         74.85023       63.46453        5.49303
O         74.24086       64.17230        4.70290
C         74.83098       63.60497        8.05377
C         74.83485       65.12609        8.18816
C         75.36118       65.53744        9.54212
O         75.69070       64.71556       10.38270
O         75.50769       66.83500        9.81921
H         74.52024       61.17639        7.77845
H         73.11405       63.42347        6.76030
H         75.87499       63.22594        8.12624
H         74.25228       63.20665        8.91662
H         73.80401       65.52201        8.08062
H         75.47113       65.56835        7.39151
N         76.09393       63.01497        5.18113
C         76.74538       63.32471        3.92633
H         77.73785       62.82587        3.88242
H         76.13092       62.95095        3.07882
H         76.89061       64.42043        3.82782
H         76.58186       62.40249        5.83896
Ca        76.49335       67.50164       11.72275
O         77.40530       64.73004       13.16128
H         77.81432       63.90025       12.80821
H         77.21158       64.52735       14.11098
O         73.91651       66.04675       12.73971
H         74.07686       65.13722       13.09680
H         73.30338       65.90953       11.97439

Ca 1.0



