%chk=holoCaM-CaMKII.loop1.water2.frame251.chk
%nprocshared=20
%mem=10GB
%nosave
#b3lyp/svp scf=(tight,noincore,xqc) Test 
#IOP(5/87=12) Density=Current Pop=(MK,readradii) iop(6/33=2) iop(6/42=6)

holoCaM-CaMKII.loop1.water2.frame251 

   0  1 
C         85.95477        6.66723       53.87662
C         85.84298        5.94510       52.56453
O         85.07269        6.38127       51.73095
H         86.27394        7.71563       53.70068
H         84.96645        6.66500       54.38275
H         86.69273        6.18236       54.55017
N         86.61098        4.84855       52.31462
C         86.59971        4.03524       51.09163
C         85.33202        3.17273       51.00374
O         85.40656        1.96809       51.20303
C         87.88702        3.17609       51.12188
C         88.08942        2.22343       49.97949
O         88.20388        2.64739       48.70649
O         88.27290        1.04472       50.22921
H         87.28953        4.59513       53.05036
H         86.67702        4.68832       50.20110
H         87.90527        2.58777       52.06675
H         88.76232        3.86172       51.13754
N         84.11948        3.73253       50.73017
C         82.85907        2.99526       50.76851
C         82.64547        2.04501       49.59370
O         81.66644        1.31281       49.64338
C         81.67184        3.98145       50.87604
C         81.75526        4.79310       52.18170
C         80.56972        5.74939       52.34321
C         80.65405        6.57649       53.64008
N         80.61168        5.74102       54.84342
H         84.07366        4.73843       50.55628
H         82.85160        2.38103       51.69681
H         80.71831        3.40931       50.89261
H         81.65885        4.66038       49.99390
H         82.68816        5.39108       52.21078
H         81.77031        4.07190       53.02422
H         79.61834        5.17485       52.33328
H         80.56126        6.45560       51.48391
H         79.78851        7.27453       53.65881
H         81.58504        7.18655       53.64225
H         79.76171        5.13178       54.83207
H         81.47221        5.15414       54.92146
H         80.57274        6.35933       55.68528
N         83.48910        1.97571       48.52067
C         83.30803        1.01282       47.42881
C         84.43683       -0.01688       47.37928
O         84.36967       -0.91406       46.55055
C         83.07741        1.74134       46.09004
C         84.16664        2.70979       45.73274
O         83.90266        3.89411       45.60113
O         85.42930        2.28365       45.54621
H         84.30027        2.60954       48.47418
H         82.39188        0.40438       47.59452
H         82.11711        2.29971       46.16584
H         82.96147        0.99728       45.27158
N         85.44789       -0.01602       48.29390
C         86.41437       -1.09193       48.43035
C         87.37463       -1.21980       47.27392
O         87.50079       -2.30515       46.72625
H         85.49639        0.72653       49.00175
H         85.87918       -2.04931       48.61025
H         87.02672       -0.89537       49.33325
N         88.13604       -0.15722       46.89734
C         89.22147       -0.22315       45.92253
C         90.56218        0.20603       46.54358
O         91.54209        0.29922       45.81806
C         88.85284        0.57476       44.65293
C         88.66718        2.05609       44.81587
O         88.83565        2.66038       46.00247
O         88.35988        2.72595       43.84360
H         87.95082        0.74206       47.35121
H         89.35895       -1.26919       45.56988
H         87.90607        0.15283       44.24945
H         89.64649        0.41375       43.89154
N         90.69568        0.40360       47.89150
C         91.95905        0.68096       48.56481
C         92.40314        2.13362       48.55689
O         93.40172        2.41387       49.20696
H         89.89453        0.21538       48.50530
H         92.75661        0.01084       48.17629
H         91.82260        0.42704       49.63917
N         91.73681        3.11330       47.88246
C         92.11461        4.53132       47.92580
C         90.93080        5.38494       48.35817
O         89.86319        4.83532       48.56444
C         92.64975        4.98238       46.54582
C         93.95490        4.25997       46.18247
O         91.68484        4.81416       45.53629
H         90.92514        2.85021       47.30968
H         92.92203        4.70005       48.67257
H         92.89942        6.06351       46.59509
H         91.61261        3.84536       45.33138
H         94.72521        4.45583       46.95911
H         93.79715        3.16330       46.10575
H         94.33298        4.63495       45.20862
N         91.04650        6.73135       48.56009
C         89.92020        7.58587       48.94860
C         89.85405        8.77990       47.99681
O         90.77047        9.59215       48.01096
C         90.08949        8.04799       50.43118
C         90.17820        6.81978       51.37846
C         88.93129        8.97355       50.86277
C         90.58186        7.17609       52.81097
H         91.97748        7.16718       48.46702
H         88.96415        7.01749       48.88453
H         91.04495        8.61393       50.50235
H         90.96067        6.12246       51.01502
H         89.20797        6.27655       51.38635
H         89.07696        9.35257       51.89345
H         88.87752        9.86810       50.21464
H         87.95901        8.43729       50.81289
H         90.66699        6.24490       53.41023
H         91.57153        7.68177       52.80927
H         89.83599        7.82735       53.30642
N         88.81004        8.94948       47.13181
C         88.69997       10.10948       46.23595
C         88.33361       11.36102       47.02734
O         88.14000       11.26600       48.22481
C         87.63827        9.87119       45.12493
C         87.98924        8.67303       44.24404
O         86.37220        9.67443       45.69335
H         88.08447        8.21993       47.09798
H         89.67577       10.26606       45.72462
H         87.61814       10.77004       44.46686
H         85.70349        9.84686       44.97918
H         88.99424        8.80202       43.79077
H         87.96943        7.74561       44.84280
H         87.24178        8.57422       43.42825
N         88.20189       12.57462       46.41989
C         87.72003       13.76594       47.12359
C         86.26485       13.58724       47.54496
O         85.95625       13.80879       48.70709
C         87.87019       15.04457       46.26338
C         89.34589       15.35781       45.98476
O         87.16845       14.91800       45.05375
H         88.43174       12.64889       45.41832
H         88.33797       13.93991       48.03470
H         87.45093       15.89218       46.85791
H         87.00111       15.83897       44.72214
H         89.42920       16.30815       45.41702
H         89.89860       15.47729       46.94179
H         89.82454       14.55001       45.39394
N         85.32334       13.16513       46.64917
C         83.90902       12.96276       46.97754
C         83.74695       12.05121       48.17655
O         83.08755       12.44272       49.12982
C         83.13962       12.39783       45.75815
C         82.96206       13.47963       44.68005
C         82.14956       12.98742       43.47518
C         81.81876       14.16869       42.54800
N         81.03890       13.73906       41.38864
H         85.63961       12.94290       45.69309
H         83.44408       13.93556       47.25352
H         82.11992       12.09420       46.08432
H         83.65315       11.49642       45.35368
H         83.94644       13.85430       44.32615
H         82.41101       14.32333       45.15063
H         81.19363       12.54021       43.82539
H         82.72719       12.21094       42.92652
H         82.75710       14.65528       42.20117
H         81.22739       14.91947       43.12005
H         80.79167       14.57935       40.81674
H         81.60200       13.08259       40.80143
H         80.15547       13.27257       41.69836
N         84.36355       10.84422       48.22055
C         84.31330        9.95962       49.37888
C         84.77511       10.68138       50.63597
O         84.03740       10.69495       51.61203
C         85.14605        8.69219       49.10519
C         84.42742        7.80935       48.06854
C         85.12110        6.50225       47.88918
O         84.58703        5.47725       48.27596
O         86.30441        6.41740       47.26806
H         84.93096       10.57123       47.40891
H         83.26342        9.63816       49.56435
H         85.21682        8.11442       50.04578
H         86.18185        8.94980       48.78729
H         84.32368        8.30989       47.08407
H         83.40857        7.59672       48.46127
N         85.95163       11.35471       50.66763
C         86.38352       12.11807       51.81717
H         87.34286       12.63094       51.59021
H         85.62461       12.89276       52.06222
H         86.52881       11.44723       52.68863
H         86.53655       11.36349       49.83220
Ca        87.37593        4.54112       47.81367
O         88.68995        5.35565       44.96105
H         89.23419        5.52162       45.77014
H         89.20282        5.76779       44.22135
O         85.91432        5.83700       44.35620
H         85.28940        5.25750       43.85365
H         85.40012        6.66325       44.53810

Ca 1.0



