%chk=holoCaM-CaMKII.loop1.water2.frame338.chk
%nprocshared=20
%mem=10GB
%nosave
#b3lyp/svp scf=(tight,noincore,xqc) Test 
#IOP(5/87=12) Density=Current Pop=(MK,readradii) iop(6/33=2) iop(6/42=6)

holoCaM-CaMKII.loop1.water2.frame338 

   0  1 
C         25.86305       66.16719       57.75205
C         25.73037       67.63086       58.04666
O         24.79270       68.01109       58.72410
H         26.82020       65.78963       58.16981
H         25.02477       65.59540       58.20491
H         25.85348       66.00810       56.65365
N         26.67317       68.50009       57.58857
C         26.68644       69.94567       57.82455
C         25.66257       70.68177       56.95201
O         26.04429       71.38341       56.02504
C         28.13152       70.44787       57.59181
C         28.31141       71.92708       57.78313
O         28.01302       72.53579       58.94704
O         28.75884       72.59348       56.86452
H         27.47541       68.08347       57.08931
H         26.46155       70.14174       58.88568
H         28.45264       70.18179       56.55994
H         28.80610       69.92641       58.30595
N         24.32963       70.57580       57.20733
C         23.29194       71.20439       56.39653
C         23.19268       72.71752       56.59496
O         22.38129       73.31414       55.90013
C         21.92721       70.53695       56.70246
C         21.93023       69.05590       56.27317
C         20.61657       68.35034       56.63292
C         20.53417       66.91768       56.07060
N         21.60064       66.04520       56.56817
H         24.02608       70.00237       57.99817
H         23.51271       71.01349       55.32222
H         21.11714       71.04748       56.13664
H         21.70503       70.63039       57.78916
H         22.76433       68.51986       56.76872
H         22.08301       69.01111       55.17251
H         19.76572       68.92422       56.20570
H         20.50170       68.32774       57.73898
H         20.57322       66.95041       54.95905
H         19.55034       66.48852       56.36342
H         21.60083       66.02843       57.61347
H         21.43515       65.07541       56.21355
H         22.53187       66.35837       56.21251
N         23.95487       73.41276       57.49739
C         23.83780       74.86457       57.68397
C         25.10474       75.62669       57.29153
O         25.09389       76.84760       57.36856
C         23.37597       75.18988       59.12228
C         24.33511       74.82962       60.22752
O         25.42011       74.32144       59.99626
O         23.98801       75.09301       61.50105
H         24.63180       72.90407       58.08190
H         23.04267       75.26668       57.01905
H         22.41489       74.66168       59.30678
H         23.17717       76.28152       59.19294
N         26.20607       74.99176       56.80041
C         27.37329       75.68616       56.27894
C         28.16491       76.44150       57.32215
O         28.42808       77.61986       57.13061
H         26.20606       73.96689       56.71436
H         27.06719       76.36316       55.45142
H         28.06110       74.92943       55.84586
N         28.62870       75.79647       58.42653
C         29.55163       76.37590       59.39867
C         30.83227       75.53765       59.52677
O         31.66653       75.87006       60.35716
C         28.84188       76.60042       60.75431
C         28.32381       75.38491       61.47321
O         28.46464       74.26405       61.02068
O         27.68826       75.54447       62.64871
H         28.32743       74.82879       58.56816
H         29.87046       77.38942       59.06906
H         27.98004       77.27946       60.57710
H         29.54638       77.12130       61.43842
N         31.08498       74.47462       58.70207
C         32.31543       73.69485       58.72879
C         32.45096       72.73982       59.89915
O         33.45347       72.03674       59.92934
H         30.42478       74.24432       57.94952
H         33.19011       74.37898       58.67951
H         32.33978       73.05850       57.81668
N         31.50998       72.62439       60.88012
C         31.60767       71.66596       61.98113
C         30.39842       70.74571       62.00794
O         29.46704       70.95666       61.24600
C         31.75711       72.40707       63.33266
C         33.06636       73.20526       63.40666
O         30.64870       73.23621       63.58747
H         30.68203       73.23076       60.84905
H         32.49971       71.01400       61.84719
H         31.80699       71.65521       64.14928
H         30.72444       74.04486       63.01674
H         33.10084       73.98977       62.62131
H         33.15151       73.69267       64.40075
H         33.93412       72.52493       63.27164
N         30.37176       69.66268       62.83255
C         29.25562       68.72246       62.93289
C         28.92099       68.51188       64.40373
O         29.82195       68.19843       65.17359
C         29.62438       67.37437       62.23925
C         29.88122       67.61956       60.72555
C         28.49481       66.33600       62.42997
C         30.34667       66.38151       59.95732
H         31.21853       69.45959       63.38910
H         28.35461       69.10759       62.40279
H         30.55047       66.97260       62.70721
H         30.68051       68.37998       60.60673
H         28.95664       68.01194       60.24501
H         28.76051       65.35782       61.98419
H         28.31893       66.13489       63.50525
H         27.54787       66.69570       61.97320
H         29.57413       65.58722       59.94712
H         30.54442       66.66136       58.90085
H         31.28386       65.98568       60.40181
N         27.63315       68.57852       64.84824
C         27.24329       68.28881       66.22944
C         26.57672       66.92780       66.31222
O         26.36957       66.29468       65.28917
C         26.28728       69.38548       66.76745
C         26.97234       70.74824       66.85069
O         25.15510       69.47038       65.93744
H         26.88499       68.75633       64.15890
H         28.14004       68.22926       66.88544
H         25.97101       69.10896       67.79911
H         24.44800       69.93891       66.45326
H         27.84768       70.69423       67.53159
H         27.30636       71.07527       65.84893
H         26.26063       71.50114       67.25297
N         26.22211       66.40512       67.51865
C         25.51795       65.13212       67.66890
C         24.17507       65.19025       66.96659
O         23.82116       64.24428       66.27793
C         25.29909       64.76925       69.15805
C         26.62453       64.51460       69.88538
O         24.58234       65.78734       69.80920
H         26.44423       66.95035       68.36568
H         26.12013       64.30857       67.22095
H         24.71457       63.81789       69.18298
H         24.14557       65.37337       70.59861
H         27.26019       65.42315       69.90165
H         26.42179       64.20904       70.93360
H         27.18191       63.69329       69.38612
N         23.39927       66.30745       67.06882
C         22.09848       66.46385       66.42772
C         22.18894       66.14621       64.94807
O         21.44608       65.29898       64.47128
C         21.60335       67.91522       66.63178
C         20.16778       68.13532       66.13780
C         19.77289       69.61192       66.27128
C         18.30442       69.82809       65.88738
N         17.95197       71.24625       65.94750
H         23.77051       67.10179       67.61248
H         21.37916       65.76517       66.91000
H         22.29172       68.61399       66.10664
H         21.63038       68.16271       67.71576
H         19.48596       67.50058       66.74490
H         20.07404       67.84345       65.06945
H         20.42594       70.21804       65.60436
H         19.92207       69.95200       67.31955
H         17.65768       69.25658       66.59042
H         18.12279       69.45155       64.85646
H         18.51426       71.78257       65.24704
H         16.93726       71.35659       65.72082
H         18.12885       71.62532       66.90615
N         23.09418       66.79145       64.16642
C         23.22538       66.55775       62.73523
C         23.58330       65.11151       62.44762
O         22.82576       64.44605       61.75524
C         24.24346       67.54372       62.12895
C         23.70328       68.98327       62.23474
C         24.59462       69.97205       61.56269
O         25.83787       70.19919       62.01397
O         24.18262       70.60666       60.60479
H         23.71455       67.47989       64.61805
H         22.24495       66.76399       62.24398
H         24.37447       67.29400       61.05742
H         25.23285       67.45168       62.63118
H         23.57696       69.29546       63.29190
H         22.70801       69.02091       61.73952
N         24.70112       64.54242       62.96805
C         25.02831       63.14822       62.75521
H         25.96116       62.88956       63.29882
H         24.20720       62.50603       63.14163
H         25.17467       62.95178       61.67258
H         25.32983       65.10391       63.55159
Ca        26.96020       71.62951       60.71485
O         24.69938       72.80900       63.46077
H         23.75808       73.09509       63.35277
H         24.67920       72.16728       64.21452
O         27.62534       72.75649       63.79721
H         27.58586       73.31578       64.61380
H         28.33266       72.08988       63.98374

Ca 1.0



