%chk=holoCaM.loop2.water2.frame447.chk
%nprocshared=20
%mem=10GB
%nosave
#b3lyp/svp scf=(tight,noincore,xqc) Test 
#IOP(5/87=12) Density=Current Pop=(MK,readradii) iop(6/33=2) iop(6/42=6)

holoCaM.loop2.water2.frame447 

   -2  1 
C          3.51553       83.35532       52.30564
C          2.81175       84.66142       52.49762
O          3.34042       85.53087       53.17778
H          4.49906       83.36129       52.82265
H          2.89197       82.53933       52.72480
H          3.68209       83.17571       51.22277
N          1.61011       84.88410       51.89588
C          0.90882       86.14764       52.03501
C          0.38149       86.32230       53.44974
O         -0.26455       85.42124       53.96481
C         -0.16813       86.33527       50.94760
C         -0.69621       87.74268       51.00374
O         -1.88830       87.96286       50.99173
O          0.17892       88.73419       51.24085
H          1.21641       84.15424       51.28208
H          1.64676       86.93346       51.81891
H         -0.98581       85.58629       51.00830
H          0.34053       86.22242       49.96422
N          0.62137       87.48015       54.12935
C          0.28769       87.69694       55.52800
C         -0.96686       88.53667       55.67962
O         -1.85315       88.10763       56.40574
C          1.48736       88.33683       56.23464
H          1.08371       88.25500       53.63673
H          0.10265       86.72451       56.03749
H          2.37632       87.67585       56.13647
H          1.73284       89.32522       55.78960
H          1.27133       88.47234       57.31561
N         -1.14623       89.71435       55.00952
C         -2.38279       90.49297       55.12464
C         -3.46128       90.05503       54.12950
O         -4.52674       90.65582       54.12291
C         -2.09387       92.01231       55.15415
C         -1.54852       92.61378       53.89035
O         -1.25357       93.92767       53.86228
O         -1.38068       91.94096       52.88952
H         -0.42262       90.02137       54.34245
H         -2.83390       90.29895       56.12310
H         -1.36855       92.20858       55.97394
H         -3.03491       92.55072       55.40046
N         -3.30641       88.94280       53.35083
C         -4.38547       88.34687       52.57180
C         -4.79545       89.08489       51.31179
O         -5.69914       88.59195       50.65060
H         -2.43329       88.40274       53.41190
H         -5.26991       88.20959       53.23084
H         -4.06468       87.33231       52.24855
N         -4.20333       90.23996       50.89056
C         -4.64176       90.93362       49.67485
C         -4.43729       90.11739       48.39514
O         -5.08073       90.42150       47.40076
C         -3.96804       92.31106       49.52959
C         -2.48054       92.21371       49.28290
N         -1.94149       92.69660       48.14303
O         -1.75189       91.69820       50.11534
H         -3.46349       90.65441       51.47110
H         -5.73395       91.11467       49.79540
H         -4.14816       92.91105       50.44757
H         -4.44936       92.84620       48.68214
H         -2.52603       93.13108       47.41545
H         -0.92723       92.63190       47.99226
N         -3.53935       89.09410       48.34140
C         -3.33794       88.22745       47.19158
C         -1.92194       88.26650       46.64832
O         -1.60343       87.39867       45.84726
H         -2.97098       88.89514       49.16689
H         -4.04291       88.44775       46.36158
H         -3.54232       87.19082       47.53652
N         -1.03124       89.24832       46.98290
C          0.34138       89.29845       46.46815
C          1.33342       89.41807       47.61952
O          0.90640       89.53185       48.75828
C          0.49070       90.46586       45.46229
C         -0.45655       90.27694       44.26537
O          0.22389       91.68346       46.10387
H         -1.34169       90.01664       47.59475
H          0.58523       88.35847       45.92512
H          1.53543       90.47715       45.07968
H          0.33013       92.40602       45.43169
H         -1.51769       90.28659       44.59343
H         -0.31389       91.09778       43.53139
H         -0.24367       89.31384       43.75474
N          2.68109       89.37515       47.39837
C          3.67490       89.44040       48.47234
C          4.58413       90.65336       48.30185
O          5.05801       90.91073       47.20387
C          4.45287       88.09570       48.62357
C          5.27963       87.69824       47.37448
C          3.46043       86.98364       49.02155
C          6.12040       86.43307       47.58829
H          3.01914       89.26036       46.43109
H          3.17107       89.57433       49.45389
H          5.15989       88.22549       49.47318
H          5.98723       88.51754       47.13288
H          4.61295       87.53639       46.50123
H          3.97989       86.04364       49.29310
H          2.88894       87.29160       49.91788
H          2.74185       86.77727       48.20035
H          6.80305       86.56393       48.45463
H          5.48357       85.54091       47.75706
H          6.73045       86.23242       46.68315
N          4.88933       91.42622       49.38749
C          5.72081       92.63160       49.36269
C          7.08687       92.29304       49.97850
O          7.30133       91.12438       50.24495
C          4.93001       93.74094       50.09716
C          5.36418       95.16463       49.86175
O          6.22313       95.44868       49.04337
O          4.71934       96.15542       50.50629
H          4.54041       91.12568       50.30894
H          5.89051       92.94726       48.30989
H          4.93052       93.51272       51.18454
H          3.87635       93.71066       49.74132
N          8.09164       93.20135       50.16541
C          9.45813       92.78946       50.49654
C          9.58444       91.98898       51.79784
O         10.09752       90.88277       51.70129
C         10.45283       93.97546       50.44328
C         11.88801       93.49763       50.48466
C         12.39525       92.70734       49.43601
C         12.73428       93.83742       51.55454
C         13.71871       92.26304       49.45895
C         14.05988       93.38732       51.57406
C         14.55090       92.60145       50.52738
H          7.92966       94.19236       49.96531
H          9.76650       92.11220       49.66950
H         10.26248       94.69188       51.25820
H         10.31670       94.53557       49.49320
H         11.76885       92.43896       48.59486
H         12.37018       94.44398       52.37425
H         14.09805       91.65742       48.64584
H         14.70845       93.64763       52.40034
H         15.57635       92.25551       50.54196
N          9.16971       92.42316       53.03565
C          9.29194       91.62477       54.25708
C          8.81146       90.19910       54.08436
O          9.50041       89.26828       54.47689
C          8.38119       92.35339       55.25665
C          8.55666       93.78827       54.83497
C          8.49173       93.67650       53.31205
H         10.34973       91.64792       54.60322
H          7.31177       92.10661       55.06310
H          8.60032       92.13156       56.32348
H          7.83782       94.50863       55.27975
H          9.59003       94.09016       55.12468
H          7.44683       93.60429       52.93772
H          8.98437       94.57230       52.90395
N          7.62703       89.97674       53.46004
C          7.03787       88.66453       53.24045
C          7.96501       87.77562       52.42627
O          8.34704       86.71875       52.90893
C          5.68930       88.83647       52.51730
C          4.67258       89.62241       53.36863
C          3.42927       89.85560       52.58188
O          2.85425       88.90058       52.10220
O          2.91451       91.08716       52.39077
H          7.12539       90.80610       53.10964
H          6.84927       88.17625       54.22351
H          5.26291       87.83515       52.28250
H          5.85403       89.37361       51.55992
H          5.05344       90.60739       53.70283
H          4.42581       89.02185       54.27167
N          8.37157       88.14273       51.18192
C          9.25549       87.33674       50.37223
H         10.22428       87.19464       50.89498
H          8.78818       86.35178       50.16488
H          9.44690       87.85009       49.40458
H          8.04919       89.02867       50.78967
Ca         0.84781       90.85734       51.52913
O          0.54392       93.83235       49.77038
H         -0.24956       94.41876       49.68769
H          1.30404       94.40390       49.49671
O          2.25639       93.86361       52.08306
H          2.93765       93.86015       52.80085
H          1.50656       94.39538       52.44939

Ca 1.0



