%chk=holoCaM-CaMKII.loop2.water2.frame343.chk
%nprocshared=20
%mem=10GB
%nosave
#b3lyp/svp scf=(tight,noincore,xqc) Test 
#IOP(5/87=12) Density=Current Pop=(MK,readradii) iop(6/33=2) iop(6/42=6)

holoCaM-CaMKII.loop2.water2.frame343 

   -2  1 
C         34.02424       64.96198       74.00120
C         34.67861       66.15058       74.64828
O         35.44973       66.83093       73.99094
H         33.41195       65.30080       73.13802
H         34.79709       64.25195       73.64250
H         33.35528       64.42910       74.71030
N         34.38599       66.48203       75.93483
C         34.91162       67.66901       76.59935
C         36.40951       67.58517       76.85600
O         36.86176       66.61881       77.45386
C         34.18031       67.88669       77.93635
C         34.63976       69.15562       78.59123
O         34.54808       70.21443       77.99443
O         35.18413       69.12633       79.82116
H         33.70430       65.89658       76.44260
H         34.67714       68.55395       75.96836
H         34.35213       67.02611       78.61820
H         33.08868       67.96904       77.74578
N         37.21647       68.63090       76.51045
C         38.64091       68.70557       76.80925
C         38.98507       69.86249       77.75250
O         40.14968       69.97232       78.11117
C         39.40387       68.88504       75.49195
H         36.79447       69.43563       76.03538
H         38.98164       67.76682       77.29645
H         39.09625       69.83462       74.99869
H         40.49966       68.91896       75.66929
H         39.18214       68.04344       74.80286
N         38.06019       70.78673       78.15815
C         38.39040       71.96220       78.96168
C         37.48674       72.09651       80.19113
O         38.02824       72.13934       81.28780
C         38.46115       73.21281       78.05197
C         37.34578       73.37797       77.05266
O         36.08562       73.60533       77.44232
O         37.59595       73.33132       75.85864
H         37.09488       70.72032       77.81519
H         39.42552       71.88206       79.36715
H         39.39180       73.10217       77.44980
H         38.58046       74.13085       78.66650
N         36.12380       72.14736       80.10941
C         35.24648       72.24579       81.27541
C         34.30052       73.43515       81.23528
O         33.50252       73.56182       82.15340
H         35.67569       72.06385       79.19184
H         35.82934       72.30881       82.22004
H         34.62913       71.32500       81.32322
N         34.33075       74.35688       80.23108
C         33.46919       75.53870       80.19419
C         31.97277       75.23826       80.07481
O         31.19409       76.16287       80.26274
C         33.93828       76.50333       79.07809
C         33.93997       75.93061       77.67885
N         34.42683       76.67513       76.66257
O         33.53755       74.79889       77.45625
H         35.04277       74.25673       79.50171
H         33.61239       76.07290       81.15961
H         34.98702       76.79217       79.30727
H         33.31962       77.42580       79.08641
H         34.78787       77.62424       76.82780
H         34.46410       76.30044       75.71007
N         31.49057       74.00225       79.75362
C         30.06764       73.67568       79.71372
C         29.51119       73.51363       78.30923
O         28.34683       73.15861       78.19332
H         32.15359       73.25251       79.52756
H         29.45869       74.47047       80.19766
H         29.91075       72.74647       80.30181
N         30.23675       73.85195       77.20520
C         29.69222       73.90260       75.85096
C         30.57910       73.17130       74.86093
O         31.78343       73.38451       74.86723
C         29.58389       75.38118       75.40243
C         28.55281       76.14536       76.23444
O         30.82460       76.03565       75.50903
H         31.19227       74.20150       77.33251
H         28.66383       73.47904       75.79966
H         29.21740       75.41806       74.34794
H         31.31426       75.88206       74.65987
H         28.47580       77.18977       75.86550
H         27.55434       75.66637       76.14060
H         28.84419       76.16910       77.30539
N         30.02995       72.38204       73.89263
C         30.81745       71.84974       72.78296
C         31.42178       73.00264       71.99112
O         30.68649       73.84595       71.49724
C         29.96655       70.89426       71.87767
C         29.66839       69.59571       72.67982
C         30.69928       70.55777       70.55944
C         28.86880       68.53238       71.92524
H         29.01085       72.22075       73.90194
H         31.64365       71.24174       73.18486
H         29.01633       71.39935       71.59281
H         29.10235       69.85651       73.59849
H         30.62929       69.12670       72.98781
H         30.07805       69.91724       69.90275
H         30.88781       71.47625       69.96711
H         31.66025       70.04687       70.75983
H         29.43252       68.14682       71.05076
H         28.69405       67.66704       72.59939
H         27.89100       68.93755       71.59483
N         32.77134       73.04097       71.78161
C         33.42695       74.00289       70.90294
C         33.68490       73.33856       69.56309
O         33.35313       72.17710       69.40574
C         34.72475       74.54500       71.54253
C         34.41709       75.42476       72.72592
O         34.02592       74.90283       73.90048
O         34.57020       76.63174       72.63821
H         33.34773       72.26919       72.14568
H         32.75314       74.85928       70.68223
H         35.24386       75.17531       70.79151
H         35.42538       73.72419       71.81868
N         34.21235       74.04001       68.51802
C         34.34480       73.45734       67.18669
C         35.22109       72.20434       67.18448
O         34.74231       71.20077       66.66981
C         34.83059       74.49613       66.14696
C         34.90819       73.86544       64.77672
C         33.74046       73.43709       64.12057
C         36.15496       73.66860       64.15945
C         33.82190       72.81804       62.87037
C         36.23186       73.04201       62.91276
C         35.06683       72.61675       62.26883
H         34.47318       75.02643       68.65695
H         33.32467       73.15888       66.85459
H         35.81715       74.89793       66.42564
H         34.13973       75.36664       66.11270
H         32.76869       73.57985       64.57672
H         37.06802       73.98051       64.65150
H         32.91985       72.48884       62.37107
H         37.19614       72.88043       62.44925
H         35.12895       72.12908       61.30501
N         36.48749       72.14314       67.70710
C         37.32091       70.94411       67.68451
C         36.61741       69.71839       68.23831
O         36.61887       68.67720       67.59993
C         38.50939       71.30715       68.58562
C         38.63046       72.79161       68.35381
C         37.17099       73.22805       68.38881
H         37.66247       70.76835       66.63911
H         38.23400       71.19227       69.65889
H         39.42613       70.70995       68.39558
H         39.29044       73.33267       69.06400
H         39.01490       72.94022       67.31809
H         36.77692       73.29776       69.42666
H         37.11316       74.20748       67.89309
N         35.96542       69.80569       69.42942
C         35.25103       68.70270       70.06559
C         34.18426       68.14239       69.14155
O         34.10481       66.93001       69.00217
C         34.59790       69.18131       71.37249
C         35.62192       69.65162       72.42645
C         34.93156       70.19508       73.63841
O         35.63160       70.86292       74.55901
O         33.71717       70.20097       73.71625
H         35.95248       70.72875       69.88639
H         35.96021       67.88764       70.33023
H         34.00100       68.35243       71.81403
H         33.91380       70.02426       71.13459
H         36.23456       70.48131       72.01987
H         36.31086       68.83329       72.71590
N         33.36009       68.97217       68.44432
C         32.34689       68.51540       67.51682
H         31.36721       68.95314       67.79888
H         32.60839       68.85851       66.49291
H         32.25185       67.41014       67.50502
H         33.48065       69.98515       68.53804
Ca        34.97659       72.97404       74.46397
O         31.98462       69.20769       75.61518
H         31.48077       69.96286       75.22184
H         31.31141       68.49286       75.73022
O         32.29835       71.64691       77.62287
H         31.48624       71.35558       77.14258
H         32.23784       71.18724       78.49807

Ca 1.0



