%chk=holoCaM.loop1.water2.frame311.chk
%nprocshared=20
%mem=10GB
%nosave
#b3lyp/svp scf=(tight,noincore,xqc) Test 
#IOP(5/87=12) Density=Current Pop=(MK,readradii) iop(6/33=2) iop(6/42=6)

holoCaM.loop1.water2.frame311 

   0  1 
C         21.03618       27.37468       37.42520
C         20.37566       26.41352       36.48522
O         20.54270       25.21176       36.63980
H         21.70842       28.04685       36.85199
H         20.26269       27.98260       37.94006
H         21.63434       26.83275       38.18815
N         19.59120       26.88561       35.47787
C         18.90844       26.01232       34.53410
C         19.91052       25.18814       33.72187
O         20.67027       25.72773       32.93119
C         17.96341       26.84124       33.64473
C         17.40426       26.05629       32.49916
O         16.66821       24.94399       32.68968
O         17.62528       26.44780       31.36956
H         19.45888       27.90671       35.40433
H         18.27434       25.32127       35.12624
H         18.52684       27.70058       33.22065
H         17.13484       27.24635       34.26773
N         19.95965       23.84553       33.93351
C         20.88845       22.89969       33.31821
C         20.53296       22.62943       31.85797
O         21.40929       22.71315       31.01032
C         20.83476       21.58200       34.14645
C         21.99236       20.57796       34.03889
C         22.14244       19.85828       32.69748
C         23.17207       18.72251       32.84147
N         23.37608       18.01920       31.57767
H         19.33811       23.48829       34.66730
H         21.92271       23.29495       33.42896
H         19.88220       21.04806       33.96145
H         20.86259       21.88139       35.21862
H         21.78027       19.80163       34.80955
H         22.94978       21.07257       34.31290
H         22.47728       20.57581       31.92219
H         21.16748       19.41751       32.39688
H         22.80931       17.99580       33.60459
H         24.14513       19.13336       33.19207
H         24.04850       17.23297       31.73295
H         22.47082       17.62651       31.23175
H         23.77765       18.67332       30.86795
N         19.26325       22.25100       31.50983
C         18.89071       21.71272       30.19306
C         17.95671       22.59596       29.35456
O         17.49961       22.13920       28.31560
C         18.32569       20.28411       30.37512
C         17.04563       20.18375       31.16537
O         16.43597       21.27605       31.66108
O         16.54961       19.08576       31.35842
H         18.54496       22.27233       32.24707
H         19.79923       21.59235       29.56423
H         19.09678       19.66966       30.88795
H         18.14699       19.83465       29.37439
N         17.74426       23.90245       29.65614
C         17.05799       24.83489       28.76361
C         15.55171       24.69479       28.69998
O         15.00562       24.66461       27.60670
H         18.21254       24.28638       30.48537
H         17.50921       24.79720       27.74810
H         17.23591       25.86327       29.12726
N         14.81320       24.69860       29.84263
C         13.35592       24.81885       29.89284
C         12.91270       26.00100       30.77273
O         11.71466       26.21891       30.89207
C         12.72609       23.49792       30.37595
C         13.32388       22.98232       31.65396
O         13.35921       23.74951       32.75540
O         13.79494       21.85852       31.69156
H         15.31787       24.63555       30.73352
H         12.94199       25.01341       28.87835
H         12.86972       22.72705       29.58683
H         11.63059       23.63819       30.50417
N         13.80899       26.81316       31.40701
C         13.44628       27.94437       32.24495
C         12.68233       27.54855       33.49031
O         11.68342       28.18455       33.78318
H         14.81727       26.65973       31.28840
H         12.87919       28.69887       31.65623
H         14.38718       28.42895       32.58756
N         13.16024       26.57155       34.31380
C         12.59544       26.21250       35.62574
C         13.63059       25.35063       36.42305
O         14.90511       25.87790       36.24103
C         11.23310       25.44517       35.52677
C         10.01197       26.25739       35.07418
O         11.36460       24.28818       34.74402
H         14.03626       26.12241       34.01345
H         12.47195       27.14859       36.21354
H         10.94600       25.12408       36.54481
H         11.31032       24.56487       33.79210
H          9.10048       25.63128       35.18194
H          9.89455       27.15864       35.71225
H         10.06480       26.53780       34.00624
N         13.35172       25.32857       37.87591
C         14.40788       24.64239       38.66808
C         13.82722       23.44464       39.42441
O         13.02502       23.62112       40.33061
C         15.12451       25.66363       39.62137
C         15.89920       26.72939       38.79443
C         16.08576       24.94792       40.58881
C         16.59913       27.81560       39.61187
H         12.41175       24.92110       38.06948
H         15.19479       24.23242       37.99304
H         14.35043       26.17287       40.23648
H         15.18582       27.26571       38.13803
H         16.66865       26.22299       38.16738
H         16.54975       25.65903       41.29966
H         15.53584       24.22938       41.22458
H         16.88130       24.41622       40.02783
H         17.09223       28.52808       38.91558
H         15.85878       28.37058       40.22388
H         17.39323       27.39923       40.26265
N         14.21502       22.18609       39.07638
C         13.81379       20.95875       39.76077
C         14.50010       20.87341       41.11840
O         15.26677       21.75063       41.46533
C         14.21021       19.71153       38.91070
C         13.49309       19.68276       37.55806
O         15.59789       19.69305       38.70556
H         14.83986       22.09827       38.27571
H         12.70954       20.94811       39.88751
H         13.90694       18.79167       39.45780
H         15.83663       18.78587       38.37983
H         13.77575       18.76369       37.00137
H         12.39287       19.68263       37.70225
H         13.78298       20.55419       36.94420
N         14.28826       19.80367       41.93160
C         15.01994       19.59957       43.18150
C         16.51252       19.41509       42.90905
O         17.31865       20.11628       43.50726
C         14.45306       18.37725       43.95014
C         13.01169       18.64396       44.41208
O         14.49598       17.22642       43.14491
H         13.60053       19.09835       41.63601
H         14.88699       20.48385       43.84521
H         15.08271       18.22230       44.85678
H         14.24298       16.45765       43.71939
H         12.98034       19.54226       45.06489
H         12.33212       18.80561       43.54978
H         12.63465       17.77849       44.99592
N         16.94388       18.48826       42.00844
C         18.34741       18.18580       41.71746
C         19.11233       19.42217       41.27546
O         20.13923       19.73044       41.86202
C         18.39429       17.08172       40.63237
C         19.78619       16.56819       40.22544
C         20.58760       15.99672       41.40559
C         21.81493       15.18040       40.96086
N         22.75114       15.95148       40.14246
H         16.22068       17.95789       41.49706
H         18.82012       17.78512       42.64086
H         17.88487       17.44670       39.71290
H         17.81559       16.20988       41.01025
H         20.36572       17.37614       39.72940
H         19.61456       15.75801       39.48280
H         19.94029       15.30584       41.98831
H         20.90492       16.82677       42.07291
H         21.47625       14.28900       40.38698
H         22.33819       14.81712       41.87322
H         22.31198       16.20803       39.22939
H         23.05823       16.81138       40.65074
H         23.58739       15.35670       39.94028
N         18.64294       20.18675       40.25431
C         19.29693       21.39872       39.76215
C         19.48560       22.38629       40.90297
O         20.61278       22.78560       41.16344
C         18.46577       22.00913       38.60114
C         18.43739       21.05919       37.38108
C         17.52224       21.53283       36.28553
O         16.21451       21.69837       36.51225
O         17.93725       21.69560       35.15681
H         17.75335       19.89738       39.83361
H         20.30369       21.14451       39.36042
H         18.90889       22.97894       38.28257
H         17.43061       22.20109       38.96050
H         18.07533       20.05571       37.67325
H         19.47240       20.94107       36.99306
N         18.43225       22.77862       41.66426
C         18.57352       23.65410       42.80742
H         18.97314       24.63944       42.48988
H         17.58395       23.80659       43.29009
H         19.25761       23.19506       43.55354
H         17.50151       22.41556       41.44226
Ca        15.92737       24.55958       34.74365
O         12.85257       21.81127       34.89871
H         12.57880       22.21855       35.75899
H         12.30538       20.98941       34.82705
O         15.15050       19.73183       34.53981
H         15.09282       19.32741       33.63882
H         15.76658       19.14013       35.04066

Ca 1.0



