%chk=holoCaM.loop2.water0.frame333.chk
%nprocshared=20
%mem=10GB
%nosave
#b3lyp/svp scf=(tight,noincore,xqc) Test 
#IOP(5/87=12) Density=Current Pop=(MK,readradii) iop(6/33=2) iop(6/42=6)

holoCaM.loop2.water0.frame333 

   -2  1 
C         22.74212       33.03424       -3.09391
C         21.97465       33.63599       -4.23608
O         20.85358       33.21980       -4.49011
H         23.69474       33.57971       -2.91635
H         22.13460       33.11342       -2.16680
H         22.97170       31.97095       -3.30016
N         22.51401       34.66111       -4.94643
C         21.76982       35.43016       -5.93566
C         21.30153       34.59020       -7.14075
O         21.98394       33.64849       -7.51757
C         22.63110       36.62908       -6.39230
C         21.76689       37.79657       -6.75064
O         20.85044       37.66699       -7.52221
O         21.91737       38.97460       -6.12544
H         23.46717       34.96728       -4.69525
H         20.88509       35.83122       -5.39050
H         23.32555       36.30595       -7.20272
H         23.25642       37.00785       -5.55601
N         20.14269       34.90739       -7.79636
C         19.55743       34.18080       -8.92832
C         19.49103       35.00278      -10.23605
O         19.02343       34.48602      -11.24091
C         18.17450       33.70089       -8.48604
H         19.60698       35.70037       -7.44360
H         20.17385       33.29275       -9.17469
H         17.67057       33.13018       -9.29020
H         18.29352       33.04095       -7.59814
H         17.53467       34.56189       -8.19412
N         19.98270       36.26841      -10.29289
C         20.19368       37.09867      -11.48170
C         21.63368       37.69891      -11.50360
O         22.15513       37.90827      -12.58986
C         19.08735       38.17768      -11.60054
C         18.74751       38.81699      -10.29197
O         19.67611       39.39762       -9.53305
O         17.61415       38.71620       -9.84921
H         20.23797       36.67366       -9.41092
H         20.08318       36.48719      -12.40628
H         18.14957       37.67534      -11.92924
H         19.34791       38.92992      -12.37604
N         22.32666       37.99608      -10.35266
C         23.66999       38.56148      -10.24208
C         23.67433       40.08196      -10.14266
O         24.73829       40.67755      -10.22617
H         21.88858       37.84032       -9.46375
H         24.29090       38.22677      -11.09632
H         24.15009       38.16547       -9.31739
N         22.51141       40.77338      -10.01729
C         22.36839       42.20870      -10.21133
C         23.01983       43.07147       -9.14461
O         23.07000       44.27835       -9.34148
C         20.87063       42.56060      -10.34505
C         20.16697       42.61828       -9.02083
N         19.50779       43.73513       -8.66295
O         20.19194       41.66612       -8.26327
H         21.66613       40.23237       -9.90541
H         22.83409       42.42540      -11.19461
H         20.36526       41.81022      -10.99516
H         20.76028       43.54568      -10.83956
H         19.48452       44.56662       -9.26709
H         18.99063       43.75257       -7.78806
N         23.46022       42.55117       -7.96254
C         24.06477       43.37152       -6.92392
C         23.13760       43.61199       -5.73967
O         23.53665       44.34394       -4.84566
H         23.32399       41.54875       -7.76419
H         24.34248       44.36656       -7.32880
H         25.00946       42.88363       -6.59569
N         21.89707       43.03932       -5.66002
C         20.99700       43.16165       -4.50236
C         20.15020       41.90261       -4.34246
O         20.16645       41.04240       -5.21198
C         20.06484       44.41395       -4.55707
C         20.82428       45.72831       -4.57587
O         19.22311       44.39665       -5.66899
H         21.65793       42.36234       -6.39011
H         21.62021       43.21142       -3.58359
H         19.42979       44.44130       -3.64469
H         18.60795       43.62429       -5.57471
H         20.09953       46.57165       -4.54547
H         21.48276       45.78791       -3.68639
H         21.41528       45.81635       -5.51070
N         19.37411       41.72928       -3.23309
C         18.65906       40.48603       -2.96581
C         17.17266       40.64831       -3.22630
O         16.55726       41.57885       -2.72334
C         18.88872       39.97249       -1.51072
C         20.37113       40.09043       -1.08380
C         18.38919       38.52026       -1.37533
C         20.68207       39.44870        0.26948
H         19.33911       42.47592       -2.52379
H         19.05264       39.69436       -3.63885
H         18.28457       40.59909       -0.81902
H         20.61878       41.17071       -1.00680
H         21.03237       39.62689       -1.84606
H         18.34346       38.22160       -0.31141
H         17.36265       38.42646       -1.75078
H         19.04718       37.80729       -1.91920
H         21.74108       39.64583        0.53239
H         20.02443       39.86183        1.06274
H         20.55481       38.34611        0.21656
N         16.52657       39.67933       -3.93156
C         15.09230       39.61317       -4.16755
C         14.50285       38.51668       -3.29261
O         15.26491       37.82980       -2.65826
C         14.85239       39.32865       -5.64916
C         15.57437       40.31410       -6.51985
O         16.82273       40.02608       -6.90560
O         14.96807       41.20929       -7.08130
H         17.07423       38.88041       -4.25523
H         14.61479       40.57243       -3.87221
H         13.77045       39.33455       -5.88290
H         15.23406       38.30793       -5.89619
N         13.16547       38.33691       -3.13612
C         12.58274       37.49928       -2.07420
C         13.01821       36.01908       -2.02016
O         13.40487       35.60941       -0.93330
C         11.04733       37.62481       -2.08564
C         10.41490       36.73264       -1.05152
C         10.56092       37.00523        0.31717
C          9.69799       35.59527       -1.45956
C          9.97579       36.16035        1.26426
C          9.13286       34.74349       -0.51027
C          9.26405       35.02971        0.85065
H         12.53532       38.92590       -3.69977
H         12.91267       37.93442       -1.10180
H         10.65410       37.36262       -3.07877
H         10.74473       38.67980       -1.91433
H         11.11977       37.87264        0.64663
H          9.59443       35.35738       -2.51161
H         10.07718       36.38051        2.31846
H          8.59451       33.86155       -0.83139
H          8.81681       34.37229        1.58342
N         12.91964       35.12177       -3.04770
C         13.28807       33.70513       -2.92316
C         14.76290       33.55782       -2.54356
O         15.12002       32.74979       -1.69845
C         12.97931       33.13144       -4.31709
C         11.90532       34.08189       -4.82902
C         12.44400       35.42276       -4.37494
H         12.62489       33.21893       -2.17324
H         13.85474       33.25895       -4.99050
H         12.68214       32.05901       -4.30851
H         11.69766       34.02810       -5.91787
H         10.96023       33.89511       -4.26822
H         13.30723       35.74279       -5.00055
H         11.65229       36.17711       -4.43152
N         15.64203       34.44126       -3.08504
C         17.05156       34.61073       -2.74704
C         17.20421       34.95760       -1.25207
O         18.06464       34.40279       -0.58628
C         17.67197       35.75680       -3.61514
C         17.32676       35.73184       -5.13289
C         17.93696       36.86662       -5.89607
O         18.80296       37.71471       -5.31154
O         17.63549       37.02565       -7.06913
H         15.23385       35.09340       -3.75249
H         17.61416       33.68182       -2.98822
H         18.77589       35.74172       -3.47951
H         17.30636       36.72311       -3.24322
H         16.24284       35.87409       -5.30449
H         17.63512       34.77441       -5.59592
N         16.35708       35.85321       -0.66505
C         16.38675       36.30396        0.71278
H         16.39672       37.41716        0.73345
H         15.45666       35.98459        1.23253
H         17.26959       35.92781        1.26218
H         15.60452       36.22724       -1.22450
Ca        18.88516       39.50595       -7.47141

Ca 1.0



