%chk=holoCaM-CaMKII.loop1.water2.frame54.chk
%nprocshared=20
%mem=10GB
%nosave
#b3lyp/svp scf=(tight,noincore,xqc) Test 
#IOP(5/87=12) Density=Current Pop=(MK,readradii) iop(6/33=2) iop(6/42=6)

holoCaM-CaMKII.loop1.water2.frame54 

   0  1 
C          6.65248       59.43253       96.54223
C          5.55607       59.28965       97.54859
O          5.57980       58.34653       98.32668
H          7.38488       58.60356       96.64568
H          6.22613       59.42003       95.51910
H          7.18075       60.39489       96.71333
N          4.57348       60.22820       97.62482
C          3.55865       60.18303       98.66345
C          2.59100       59.02656       98.42437
O          1.98551       58.98493       97.36207
C          2.78745       61.52073       98.73195
C          2.17097       61.71340      100.08575
O          1.32971       62.58008      100.25605
O          2.73169       61.10796      101.15431
H          4.61102       61.03654       96.98366
H          4.11733       60.06324       99.61695
H          2.03531       61.58954       97.91502
H          3.47588       62.38070       98.60594
N          2.40183       58.05197       99.36125
C          1.56006       56.87383       99.15410
C          0.35220       56.78821      100.07680
O         -0.42082       55.86066       99.87404
C          2.42273       55.60005       99.30509
C          3.43090       55.39162       98.16179
C          2.72007       55.05702       96.83344
C          3.67479       54.76835       95.66702
N          4.49517       53.57784       95.89465
H          2.90839       58.12523      100.24742
H          1.10165       56.90025       98.14745
H          1.78389       54.69072       99.33914
H          2.96220       55.65788      100.27725
H          4.06728       54.53111       98.45312
H          4.08094       56.28233       98.04562
H          2.08917       55.91099       96.51838
H          2.05984       54.17372       96.98054
H          4.32497       55.65058       95.47936
H          3.05216       54.60006       94.75953
H          5.16648       53.73405       96.67885
H          3.88604       52.75269       96.10098
H          5.04656       53.37913       95.02911
N          0.06529       57.70424      101.04850
C         -1.20163       57.67179      101.78984
C         -2.08696       58.87299      101.44181
O         -3.19640       58.94698      101.95081
C         -0.97327       57.43652      103.30086
C         -0.23244       58.50605      104.04194
O          0.03347       58.33874      105.35173
O          0.12050       59.52643      103.48366
H          0.72341       58.47630      101.22788
H         -1.80669       56.79431      101.47495
H         -0.40814       56.48523      103.41456
H         -1.95878       57.30384      103.79821
N         -1.71075       59.78787      100.49732
C         -2.59388       60.80808       99.95138
C         -3.00185       61.87444      100.93862
O         -4.18826       62.10990      101.11270
H         -0.78520       59.71641      100.05173
H         -3.48868       60.32144       99.50669
H         -2.05397       61.32521       99.12687
N         -2.04787       62.59573      101.57954
C         -2.30916       63.75833      102.43385
C         -1.50717       64.97949      101.95928
O         -1.52250       65.98773      102.65201
C         -2.07686       63.42853      103.93994
C         -0.71679       62.90555      104.28617
O         -0.44595       62.56428      105.42583
O          0.14527       62.69214      103.29539
H         -1.07436       62.31233      101.40824
H         -3.38179       64.04727      102.38288
H         -2.80803       62.64313      104.23206
H         -2.28657       64.33212      104.55103
N         -0.84273       64.99525      100.75927
C         -0.14095       66.16549      100.24490
C          1.19324       66.45466      100.91225
O          1.80029       67.45338      100.55436
H         -0.90622       64.18632      100.12632
H         -0.81094       67.05035      100.32090
H          0.07828       66.00897       99.16640
N          1.72386       65.63848      101.86699
C          2.98965       65.89849      102.55383
C          3.93490       64.71919      102.38163
O          3.50317       63.59438      102.56810
C          2.72704       66.16100      104.05504
C          1.86695       67.41569      104.27648
O          2.15096       65.04492      104.68529
H          1.20148       64.79810      102.14517
H          3.48866       66.81240      102.16195
H          3.70678       66.35471      104.54478
H          1.19296       65.00472      104.43346
H          2.35592       68.30298      103.82143
H          0.86047       67.29265      103.82243
H          1.74276       67.59761      105.36452
N          5.25935       64.90230      102.09761
C          6.20160       63.79151      101.94869
C          7.10891       63.74951      103.16912
O          7.83121       64.70458      103.41821
C          7.02737       63.93604      100.63580
C          6.09361       64.03402       99.40447
C          8.00930       62.75261      100.48225
C          6.83097       64.38614       98.10990
H          5.62622       65.86394      102.03316
H          5.64896       62.82836      101.89160
H          7.61197       64.88048      100.70504
H          5.35012       64.84297       99.56673
H          5.54664       63.07773       99.27436
H          8.65559       62.86944       99.59088
H          8.69402       62.68930      101.35081
H          7.45372       61.79364      100.39824
H          6.09679       64.48750       97.28349
H          7.36333       65.35460       98.22782
H          7.55679       63.60177       97.81865
N          7.10819       62.65348      103.98095
C          7.94110       62.52625      105.17341
C          9.31982       62.00727      104.79978
O          9.54842       61.68555      103.64607
C          7.27220       61.56271      106.19475
C          5.88757       62.06342      106.61628
O          7.15084       60.28157      105.63446
H          6.48256       61.87436      103.74666
H          8.04300       63.52172      105.65946
H          7.91373       61.50775      107.10335
H          6.91111       59.66302      106.37288
H          5.20950       62.10174      105.73962
H          5.44605       61.37032      107.36404
H          5.96068       63.07332      107.06979
N         10.29257       61.87939      105.74306
C         11.59049       61.26431      105.46342
C         11.41116       59.79991      105.08699
O         12.03056       59.34912      104.13388
C         12.56678       61.38865      106.66063
C         12.92383       62.85540      106.96029
O         12.08668       60.72526      107.80604
H         10.08609       62.21052      106.69587
H         12.08067       61.79537      104.61567
H         13.52213       60.89733      106.37023
H         11.43465       61.31566      108.26388
H         13.36220       63.33249      106.05694
H         12.02920       63.43694      107.26527
H         13.67380       62.90273      107.77733
N         10.53280       59.01599      105.77667
C         10.27361       57.60645      105.48551
C          9.91140       57.40785      104.02412
O         10.54764       56.60680      103.35375
C          9.12870       57.10730      106.40435
C          8.81071       55.61019      106.26603
C          7.69027       55.21519      107.24253
C          7.37975       53.71417      107.17798
N          6.32855       53.35807      108.13248
H          9.99574       59.45921      106.53855
H         11.18906       57.01670      105.71356
H          8.20509       57.68762      106.19416
H          9.42271       57.30017      107.45960
H          9.72593       55.02353      106.49694
H          8.48764       55.38104      105.22695
H          6.76871       55.79038      107.00088
H          8.00422       55.46806      108.27904
H          8.29991       53.13691      107.41892
H          7.05149       53.44244      106.15028
H          6.14873       52.32945      108.07878
H          6.62945       53.59581      109.10593
H          5.44471       53.86860      107.90386
N          8.89052       58.11355      103.47130
C          8.44211       57.94541      102.09298
C          9.55816       58.31077      101.12967
O          9.98275       57.45720      100.36299
C          7.16335       58.78089      101.84291
C          6.02122       58.30678      102.76844
C          4.77696       59.11815      102.61456
O          4.80504       60.44470      102.81935
O          3.71523       58.56942      102.38287
H          8.41266       58.79540      104.07311
H          8.16985       56.87772      101.93065
H          6.84330       58.66630      100.78419
H          7.37652       59.85662      102.03008
H          6.31182       58.39994      103.83124
H          5.79901       57.23589      102.56738
N         10.10694       59.55447      101.13710
C         11.21655       59.92285      100.28534
H         12.09192       59.27395      100.50447
H         10.93254       59.81930       99.21757
H         11.50700       60.97801      100.47925
H          9.73863       60.26000      101.78214
Ca         1.94864       61.44839      103.20020
O          2.63063       62.57957      105.97273
H          2.65051       61.85203      106.64247
H          3.17797       63.30049      106.37416
O          3.33147       59.47862      105.45038
H          3.81269       59.37309      106.30898
H          2.99000       58.57304      105.24219

Ca 1.0



