%chk=holoCaM.loop3.water3.frame406.chk
%nprocshared=20
%mem=10GB
%nosave
#b3lyp/svp scf=(tight,noincore,xqc) Test 
#IOP(5/87=12) Density=Current Pop=(MK,readradii) iop(6/33=2) iop(6/42=6)

holoCaM.loop3.water3.frame406 

   0  1 
C         76.39360       81.53236        6.31658
C         76.30770       80.65530        7.52352
O         75.33896       79.92173        7.66813
H         77.31387       81.27810        5.74886
H         75.51288       81.38108        5.65786
H         76.43803       82.59438        6.63349
N         77.32437       80.65440        8.42696
C         77.33157       79.77290        9.57945
C         76.22307       80.20015       10.54891
O         76.23375       81.33328       11.01083
C         78.73502       79.76241       10.21526
C         78.86481       78.58928       11.11315
O         79.82505       77.84419       11.04680
O         77.87902       78.34470       11.96566
H         78.14182       81.25853        8.24864
H         77.14542       78.74338        9.20319
H         78.92013       80.71222       10.75810
H         79.50879       79.64002        9.42611
N         75.17747       79.36234       10.80363
C         73.91606       79.81397       11.39290
C         73.96387       80.01508       12.91360
O         73.07615       80.67468       13.43591
C         72.79584       78.85240       10.92251
C         71.38945       79.45644       10.86196
C         70.42031       78.43784       10.23243
C         69.06494       79.07140        9.90166
N         68.14223       78.07351        9.35890
H         75.20415       78.43883       10.35749
H         73.70669       80.79926       10.91818
H         72.81982       77.90954       11.50429
H         73.02026       78.59415        9.86242
H         71.43705       80.35452       10.20666
H         71.02896       79.76157       11.86656
H         70.29141       77.58191       10.93014
H         70.84326       78.04966        9.27756
H         69.21924       79.87557        9.14609
H         68.62249       79.52393       10.81461
H         68.54969       77.62026        8.50829
H         67.94196       77.34544       10.08257
H         67.24620       78.54274        9.09432
N         74.95638       79.47084       13.68514
C         75.12520       79.73415       15.12457
C         76.52652       80.25211       15.47634
O         76.64003       80.96115       16.46681
C         74.69196       78.55414       16.04030
C         75.28009       77.19587       15.76310
O         76.04961       76.97752       14.69531
O         74.99573       76.25542       16.48495
H         75.61484       78.84156       13.21630
H         74.44151       80.56334       15.41588
H         73.59130       78.43205       15.95911
H         74.92205       78.83020       17.09402
N         77.63119       79.94968       14.73380
C         78.95928       80.49479       14.97051
C         79.99463       79.45180       15.35096
O         81.13449       79.84898       15.55137
H         77.53991       79.31868       13.94641
H         78.94132       81.24987       15.78470
H         79.29224       81.01387       14.04438
N         79.69594       78.12692       15.53115
C         80.68302       77.18789       16.07561
C         81.85663       76.91333       15.13976
O         82.80342       76.27351       15.57685
C         80.01522       75.86665       16.53797
C         79.66606       74.91589       15.41978
N         80.07992       73.62789       15.43837
O         78.99139       75.30446       14.49096
H         78.72757       77.80655       15.39015
H         81.07324       77.66614       17.00174
H         79.09323       76.12309       17.10409
H         80.69682       75.33982       17.23830
H         80.63458       73.25794       16.22235
H         79.82339       72.98894       14.67053
N         81.84953       77.32627       13.83754
C         82.93484       77.07801       12.90463
C         82.52834       76.15174       11.77571
O         83.35779       75.94220       10.90139
H         81.03354       77.82905       13.46450
H         83.81190       76.61219       13.40796
H         83.27021       78.05221       12.49000
N         81.32682       75.48632       11.76281
C         81.01167       74.45524       10.77579
C         79.65574       74.66016       10.11389
O         78.84168       75.42788       10.60235
C         81.03870       73.06404       11.44699
C         82.38858       72.75491       12.05713
C         82.83036       73.41216       13.22212
C         83.22759       71.80584       11.45416
C         84.09461       73.14859       13.75115
C         84.49357       71.54330       11.98445
C         84.93405       72.21999       13.13118
O         86.15883       71.98749       13.64313
H         80.65945       75.62495       12.53307
H         81.77710       74.46235        9.96878
H         80.80444       72.31130       10.66344
H         80.25689       72.98193       12.23194
H         82.20347       74.13418       13.72538
H         82.91039       71.28263       10.56110
H         84.42289       73.67282       14.64045
H         85.13337       70.81943       11.49748
H         86.77590       71.36435       13.23426
N         79.36552       73.99260        8.95770
C         78.09713       74.09471        8.23965
C         77.60986       72.69856        7.86848
O         78.25557       72.02754        7.07491
C         78.27333       75.02958        6.99384
C         78.35045       76.50094        7.49354
C         77.14786       74.86982        5.95291
C         78.45260       77.56159        6.39726
H         80.10668       73.41371        8.53355
H         77.31901       74.54948        8.88940
H         79.21202       74.75003        6.46585
H         79.22917       76.61613        8.16150
H         77.43425       76.72932        8.08078
H         77.09290       73.82799        5.58148
H         76.17569       75.17385        6.36738
H         77.35412       75.48061        5.05161
H         79.34569       77.38587        5.76509
H         77.53801       77.57543        5.76808
H         78.53126       78.56408        6.86724
N         76.45294       72.20807        8.40281
C         75.85933       70.93005        8.00994
C         75.21968       71.03309        6.62899
O         75.24235       72.09835        6.03707
C         74.79438       70.50500        9.04371
O         73.72644       71.41537        9.07980
H         75.97386       72.76966        9.11995
H         76.64529       70.14366        8.01613
H         75.27203       70.40357       10.04661
H         74.38523       69.50214        8.80237
H         73.80838       71.93636        9.91953
N         74.58829       69.96273        6.06992
C         73.84669       70.03392        4.81142
C         72.67834       71.00416        4.92433
O         72.53940       71.87004        4.07243
C         73.31787       68.64564        4.43267
H         74.61184       69.06413        6.57499
H         74.52546       70.35548        3.98916
H         72.63401       68.25060        5.21357
H         72.77026       68.69537        3.46657
H         74.16815       67.94066        4.31198
N         71.81144       70.92127        5.97532
C         70.65836       71.80244        6.16707
C         71.05508       73.26766        6.14395
O         70.47685       74.02428        5.37640
C         69.96923       71.47636        7.49802
H         71.99577       70.19842        6.68860
H         69.92104       71.62185        5.35316
H         70.66504       71.63050        8.35111
H         69.07896       72.12548        7.64029
H         69.63395       70.41731        7.50180
N         72.07055       73.72282        6.92787
C         72.56343       75.09988        6.90885
C         72.89860       75.52937        5.48791
O         72.38758       76.55119        5.05057
C         73.80613       75.22650        7.81716
C         73.45434       75.13909        9.30909
C         74.69254       75.16381       10.15994
O         75.48300       76.08786       10.08009
O         74.93437       74.16230       11.02463
H         72.55269       73.03409        7.52203
H         71.78159       75.79541        7.28960
H         74.29095       76.21471        7.64858
H         74.52245       74.41953        7.55692
H         72.89483       74.20666        9.52658
H         72.81003       76.00316        9.57809
N         73.70748       74.77422        4.69682
C         74.02326       75.10194        3.32114
H         75.12437       75.16218        3.20040
H         73.63303       74.30212        2.65604
H         73.57873       76.06748        3.00107
H         74.09186       73.90238        5.07114
Ca        77.31875       76.47624       12.95933
O         77.42435       72.90194       12.13142
H         78.00515       72.23766       11.68393
H         76.57599       72.41691       12.28996
O         76.33272       73.76636       14.83938
H         76.68941       74.31119       15.58449
H         76.81032       72.90280       14.91796
O         73.80415       76.15689       13.09049
H         73.36852       76.86718       13.62542
H         73.68643       75.33367       13.62660

Ca 1.0



