%chk=holoCaM-CaMKII.loop4.water2.frame204.chk
%nprocshared=20
%mem=10GB
%nosave
#b3lyp/svp scf=(tight,noincore,xqc) Test 
#IOP(5/87=12) Density=Current Pop=(MK,readradii) iop(6/33=2) iop(6/42=6)

holoCaM-CaMKII.loop4.water2.frame204 

   -3  1 
C         19.39480       60.39697       31.52439
C         20.60323       59.65490       31.02881
O         20.50704       58.97858       30.01632
H         18.58012       59.67687       31.74651
H         19.61962       60.96633       32.45164
H         19.05127       61.11338       30.74942
N         21.78677       59.75048       31.69542
C         23.01297       59.07181       31.28146
C         22.82753       57.55421       31.32006
O         22.76278       56.95948       32.38543
C         24.17620       59.61281       32.14678
C         25.49907       58.89860       32.14313
O         25.99966       58.62905       33.22133
O         26.18346       58.58681       31.02681
H         21.81451       60.36158       32.52650
H         23.22850       59.37433       30.23275
H         23.84626       59.63092       33.20945
H         24.34557       60.66836       31.83882
N         22.65789       56.89216       30.13993
C         22.42512       55.45813       29.97206
C         23.68075       54.65602       30.28517
O         23.58068       53.64345       30.96339
C         21.93520       55.17090       28.50487
C         20.60871       55.91630       28.15687
C         21.77544       53.66505       28.21347
C         19.41543       55.57950       29.06108
H         22.63842       57.47123       29.29316
H         21.61372       55.11677       30.64754
H         22.70761       55.53411       27.79271
H         20.32783       55.67916       27.10705
H         20.76051       57.01311       28.19764
H         22.74736       53.13915       28.31375
H         21.04524       53.18945       28.89806
H         21.43618       53.51504       27.16461
H         18.52058       56.13678       28.71321
H         19.17623       54.49742       29.03196
H         19.60674       55.88797       30.10892
N         24.88946       55.03340       29.78505
C         26.10685       54.22991       29.87273
C         27.13310       54.77549       30.86475
O         28.24314       54.26047       30.88763
C         26.67662       54.02829       28.44951
C         26.96159       55.31771       27.73033
O         26.37047       55.58203       26.69555
O         27.86231       56.18585       28.21949
H         24.94276       55.92664       29.28243
H         25.87862       53.20970       30.25227
H         25.92842       53.45499       27.85837
H         27.60638       53.42133       28.49018
N         26.79942       55.69176       31.82003
C         27.69341       56.03337       32.92257
C         28.85190       56.95336       32.57354
O         29.63139       57.23863       33.47176
H         25.83348       56.04636       31.86206
H         28.07976       55.09299       33.37440
H         27.10847       56.53423       33.71884
N         29.04746       57.45952       31.32156
C         30.19918       58.30009       30.97925
C         30.07283       59.76652       31.42442
O         31.01346       60.51724       31.20383
C         30.52667       58.17137       29.47678
C         29.47441       58.69331       28.53846
O         29.65293       58.60147       27.33506
O         28.33322       59.24031       28.99685
H         28.40617       57.17248       30.57180
H         31.09366       57.87379       31.48781
H         30.68668       57.09247       29.25396
H         31.47973       58.70322       29.26768
N         28.97760       60.23971       32.08737
C         28.90509       61.56811       32.68492
C         28.34784       62.67007       31.79914
O         28.13671       63.75027       32.33007
H         28.22852       59.58373       32.33337
H         29.88658       61.86045       33.11904
H         28.19831       61.49771       33.54063
N         28.06613       62.49858       30.47436
C         27.42339       63.53510       29.65607
C         26.14192       63.00346       29.03870
O         25.85409       61.82189       29.16504
C         28.39336       64.02867       28.56254
C         29.51056       64.89195       29.16514
C         30.50180       65.33032       28.11799
N         31.81803       65.04661       28.25703
O         30.11818       65.96025       27.14310
H         28.29891       61.60355       30.02433
H         27.12075       64.40631       30.27731
H         27.85204       64.66319       27.82676
H         28.81719       63.15767       28.01985
H         30.03425       64.32973       29.96624
H         29.05308       65.79918       29.61807
H         32.16397       64.53231       29.08033
H         32.49820       65.35334       27.54617
N         25.30122       63.85645       28.37304
C         24.06141       63.41984       27.74302
C         24.12179       63.74037       26.25568
O         24.06573       64.89788       25.86733
C         22.82585       64.06107       28.43597
C         21.50916       63.64699       27.75455
C         22.76489       63.65217       29.91781
H         25.54422       64.85660       28.31708
H         23.95071       62.32034       27.85777
H         22.91031       65.16904       28.38000
H         20.64499       64.12085       28.26742
H         21.48734       63.98479       26.69940
H         21.37821       62.54442       27.78309
H         23.67787       63.97975       30.45692
H         21.89046       64.12675       30.41253
H         22.66938       62.54821       30.01601
N         24.25496       62.71697       25.37101
C         24.25986       62.83221       23.91883
C         22.87445       63.23575       23.41971
O         21.95361       63.33639       24.21443
C         24.67525       61.43954       23.35457
C         24.85073       61.34525       21.86344
N         25.77281       62.10005       21.22456
O         24.16814       60.55715       21.22645
H         24.38692       61.78779       25.76431
H         25.01809       63.58904       23.62314
H         23.92010       60.68906       23.67873
H         25.64947       61.15189       23.80839
H         26.36797       62.75895       21.74623
H         25.89366       62.02030       20.20411
N         22.65040       63.46707       22.09937
C         21.33099       63.73448       21.53199
C         20.40062       62.54907       21.74902
O         19.31367       62.72530       22.28000
C         21.48207       63.99337       20.01540
C         20.15953       64.16098       19.30674
C         19.29209       65.21543       19.63424
C         19.78556       63.24911       18.30434
C         18.07111       65.35536       18.96609
C         18.56664       63.39075       17.63906
C         17.70488       64.44640       17.96672
O         16.52691       64.59659       17.32869
H         23.45633       63.43649       21.46010
H         20.89357       64.64261       22.00376
H         22.03105       63.13683       19.56463
H         22.10260       64.90116       19.85563
H         19.56034       65.92846       20.40339
H         20.43612       62.42499       18.03721
H         17.40954       66.17232       19.22442
H         18.29488       62.67941       16.86929
H         16.24176       63.99199       16.62850
N         20.77326       61.31162       21.32494
C         19.93093       60.12049       21.39980
C         19.48913       59.84704       22.82132
O         18.30334       59.64652       23.04576
C         20.67649       58.89438       20.82507
C         20.98162       59.07194       19.32524
C         21.64199       57.85362       18.75228
O         21.10843       57.23787       17.84328
O         22.83693       57.44654       19.22125
H         21.71589       61.22187       20.92456
H         19.01780       60.26929       20.78104
H         20.02601       57.99848       20.93946
H         21.61766       58.71636       21.39299
H         21.65601       59.93489       19.15181
H         20.02908       59.26423       18.78411
N         20.38913       59.86902       23.83885
C         20.02744       59.64946       25.23713
C         18.94810       60.63650       25.65845
O         17.91359       60.20555       26.14827
C         21.27211       59.75519       26.14106
C         22.33278       58.69440       25.76872
C         23.51766       58.78831       26.66913
O         23.96123       57.72710       27.34179
O         24.09876       59.84257       26.81705
H         21.36456       60.09674       23.59895
H         19.62491       58.61880       25.36058
H         20.96491       59.60119       27.19991
H         21.71380       60.77330       26.05080
H         22.69552       58.84542       24.73511
H         21.89849       57.67377       25.83955
N         19.09486       61.96941       25.42103
C         18.06964       62.95752       25.69354
H         17.17043       62.51735       26.17273
H         18.47875       63.74683       26.35672
H         17.75440       63.42648       24.73595
H         19.95627       62.29961       24.97432
Ca        25.33050       58.37205       28.98515
O         28.09012       61.11233       26.16591
H         28.96582       60.82146       25.80689
H         28.20071       61.06997       27.14805
O         26.69650       58.32671       25.35445
H         26.07850       58.19778       24.59156
H         27.38125       57.62041       25.24132

Ca 1.0



