%chk=holoCaM.loop1.water2.frame487.chk
%nprocshared=20
%mem=10GB
%nosave
#b3lyp/svp scf=(tight,noincore,xqc) Test 
#IOP(5/87=12) Density=Current Pop=(MK,readradii) iop(6/33=2) iop(6/42=6)

holoCaM.loop1.water2.frame487 

   0  1 
C        -21.83481       75.42454       51.78875
C        -23.00079       75.74753       52.67258
O        -24.07732       75.99594       52.15497
H        -20.91683       75.23129       52.38244
H        -22.06394       74.52971       51.17482
H        -21.64145       76.28933       51.11851
N        -22.86361       75.76745       54.02606
C        -23.94468       76.16036       54.92127
C        -24.27971       77.62941       54.68551
O        -23.40438       78.46411       54.86762
C        -23.51502       75.89435       56.38008
C        -24.56477       76.26922       57.37899
O        -24.27502       77.16517       58.33898
O        -25.66880       75.75217       57.34285
H        -21.95083       75.50467       54.43028
H        -24.82958       75.52341       54.71945
H        -22.58393       76.45758       56.60789
H        -23.29861       74.80918       56.49811
N        -25.52280       78.01206       54.26202
C        -25.88862       79.40263       53.97934
C        -26.96458       79.93537       54.93040
O        -27.32744       81.09569       54.79505
C        -26.37854       79.54514       52.51663
C        -25.32143       79.13305       51.48094
C        -25.76681       79.48829       50.05450
C        -24.71200       79.07271       49.01748
N        -25.09105       79.52073       47.67673
H        -26.24065       77.28703       54.12373
H        -25.00652       80.06589       54.10835
H        -26.62802       80.61443       52.34303
H        -27.30087       78.94152       52.35679
H        -25.14926       78.04469       51.55165
H        -24.37020       79.66717       51.69384
H        -25.91315       80.58895       49.99648
H        -26.73068       78.98665       49.81661
H        -24.60153       77.96506       49.02334
H        -23.72929       79.52374       49.28007
H        -26.01579       79.11610       47.40385
H        -25.14314       80.56559       47.65250
H        -24.36627       79.20745       46.99107
N        -27.52068       79.15956       55.90509
C        -28.56714       79.61430       56.82958
C        -28.17385       79.45673       58.30924
O        -28.96824       79.82868       59.16204
C        -29.92554       78.92811       56.52378
C        -29.92951       77.42258       56.56427
O        -30.99017       76.82032       56.53717
O        -28.77026       76.74223       56.56959
H        -27.18481       78.19744       55.98772
H        -28.75452       80.70135       56.68537
H        -30.28789       79.23962       55.51977
H        -30.66354       79.30585       57.26552
N        -26.94995       78.99455       58.69214
C        -26.47038       78.99630       60.06976
C        -27.05697       77.93837       60.98517
O        -27.49021       78.27199       62.07837
H        -26.26482       78.73625       57.97103
H        -26.58076       80.01212       60.50807
H        -25.38204       78.77870       60.04525
N        -26.99674       76.62462       60.63866
C        -27.23633       75.50444       61.55361
C        -26.02860       74.55881       61.57228
O        -26.12447       73.50299       62.18343
C        -28.56208       74.77766       61.22532
C        -28.80218       74.58764       59.76571
O        -29.76302       75.13846       59.25043
O        -27.94667       73.91277       58.98494
H        -26.69556       76.39545       59.67997
H        -27.35888       75.84882       62.60472
H        -29.39080       75.41892       61.60049
H        -28.63208       73.81105       61.76920
N        -24.83355       74.89711       60.99426
C        -23.64892       74.05318       61.04463
C        -23.71928       72.82037       60.16433
O        -22.76296       72.05700       60.19387
H        -24.71149       75.82319       60.56636
H        -23.45860       73.75869       62.10112
H        -22.77200       74.64249       60.70016
N        -24.79583       72.53735       59.37278
C        -24.91161       71.31342       58.58221
C        -25.23253       71.58961       57.11581
O        -25.42064       72.73444       56.72371
C        -25.97383       70.38684       59.22787
C        -25.49053       69.83389       60.57810
O        -27.21184       71.04105       59.36040
H        -25.59520       73.18231       59.36565
H        -23.94622       70.76001       58.57752
H        -26.13287       69.49459       58.58893
H        -27.16944       71.62875       60.16043
H        -25.29546       70.65023       61.30464
H        -26.25824       69.15319       61.00128
H        -24.55239       69.25568       60.43204
N        -25.26887       70.54072       56.24242
C        -25.50945       70.62692       54.80542
C        -26.74609       69.80774       54.44450
O        -26.84888       68.65240       54.83581
C        -24.23291       70.14761       54.04285
C        -23.10452       71.19830       54.25099
C        -24.50712       69.93437       52.53936
C        -21.76724       70.83997       53.60061
H        -25.07379       69.59753       56.61310
H        -25.69428       71.67311       54.48859
H        -23.91609       69.16371       54.45565
H        -22.91803       71.32531       55.33841
H        -23.43298       72.18093       53.84219
H        -25.29590       69.16967       52.38716
H        -24.81670       70.87954       52.05351
H        -23.61177       69.53588       52.02296
H        -21.39052       69.87494       53.99773
H        -21.85158       70.78402       52.49639
H        -21.02700       71.63608       53.82926
N        -27.68763       70.34617       53.61618
C        -28.89186       69.66504       53.14499
C        -28.73870       69.27229       51.67771
O        -27.67080       69.46761       51.11582
C        -30.13278       70.58013       53.34800
C        -30.32821       70.98156       54.81169
O        -30.07896       71.71398       52.51279
H        -27.51320       71.28813       53.25083
H        -29.05377       68.72372       53.71560
H        -31.04739       70.01815       53.07088
H        -29.42296       72.35537       52.88869
H        -30.42071       70.07784       55.44961
H        -29.46868       71.59026       55.15886
H        -31.25766       71.57961       54.91622
N        -29.77164       68.69806       50.99522
C        -29.69598       68.26003       49.59944
C        -29.29210       69.40586       48.68072
O        -28.34747       69.25274       47.92152
C        -31.05744       67.66635       49.15012
C        -30.98403       67.07309       47.73790
O        -31.43745       66.64858       50.04164
H        -30.66082       68.55529       51.49635
H        -28.93432       67.45096       49.52556
H        -31.81761       68.48447       49.16561
H        -32.43050       66.61988       50.04252
H        -30.70247       67.84474       46.99172
H        -30.23702       66.25071       47.70815
H        -31.97473       66.66112       47.45183
N        -29.97354       70.58370       48.70593
C        -29.63799       71.74385       47.87807
C        -28.22048       72.21683       48.14377
O        -27.45219       72.32371       47.19699
C        -30.64927       72.88362       48.14519
C        -32.02384       72.51839       47.55795
C        -33.12904       73.49082       47.97918
C        -34.45246       73.09954       47.30155
N        -35.56655       73.90289       47.80028
H        -30.75974       70.66089       49.36910
H        -29.70751       71.47569       46.79914
H        -30.31626       73.82803       47.65941
H        -30.71289       73.06383       49.24170
H        -32.32944       71.50654       47.89808
H        -31.93396       72.50070       46.44856
H        -32.86554       74.53550       47.70394
H        -33.24368       73.42901       49.08380
H        -34.67349       72.02685       47.49916
H        -34.35463       73.23722       46.20082
H        -35.39091       74.91895       47.62956
H        -36.44020       73.61683       47.30136
H        -35.69543       73.72997       48.82401
N        -27.79767       72.51389       49.40402
C        -26.44857       73.01211       49.68975
C        -25.35584       72.00890       49.32155
O        -24.19530       72.39589       49.30388
C        -26.31390       73.36585       51.18379
C        -27.27177       74.49295       51.61253
C        -27.30074       74.70295       53.10021
O        -28.02033       75.56973       53.56651
O        -26.58136       73.92745       53.93178
H        -28.47079       72.39059       50.17498
H        -26.28694       73.93179       49.08421
H        -25.27326       73.67763       51.42231
H        -26.53058       72.44568       51.75106
H        -28.31268       74.26339       51.31113
H        -26.96096       75.43463       51.11138
N        -25.63644       70.70699       49.03885
C        -24.62219       69.74790       48.66306
H        -23.85111       69.67058       49.45707
H        -25.08691       68.74766       48.52126
H        -24.14975       70.05562       47.70678
H        -26.59827       70.36859       49.10571
Ca       -28.35211       74.57288       56.90028
O        -30.69585       74.22460       55.03051
H        -30.21253       75.07040       54.86712
H        -30.88464       73.88302       54.12246
O        -29.64652       72.02585       57.74055
H        -28.72560       71.86165       57.41406
H        -30.02881       71.12260       57.86518

Ca 1.0



