%chk=holoCaM-CaMKII.loop3.water2.frame295.chk
%nprocshared=20
%mem=10GB
%nosave
#b3lyp/svp scf=(tight,noincore,xqc) Test 
#IOP(5/87=12) Density=Current Pop=(MK,readradii) iop(6/33=2) iop(6/42=6)

holoCaM-CaMKII.loop3.water2.frame295 

   0  1 
C         37.32518       30.52715       85.46273
C         36.82156       31.64198       86.32384
O         37.39587       32.72114       86.27800
H         38.36840       30.28117       85.75207
H         36.69888       29.61777       85.57353
H         37.30452       30.84960       84.40132
N         35.76841       31.44575       87.16641
C         35.25716       32.48976       88.03666
C         35.79969       32.29185       89.43702
O         36.04567       31.16754       89.85170
C         33.71851       32.55786       87.94919
C         33.15716       33.71945       88.71503
O         33.57205       34.84378       88.48317
O         32.16064       33.56699       89.61001
H         35.34678       30.50663       87.23598
H         35.63819       33.47492       87.68372
H         33.25636       31.61236       88.29121
H         33.44634       32.70472       86.88278
N         36.09630       33.38816       90.18427
C         36.74334       33.36087       91.49029
C         35.94196       32.50800       92.45366
O         36.51565       31.60692       93.04938
C         36.92680       34.81700       91.97262
C         37.76313       35.00141       93.24654
C         37.93385       36.50745       93.52391
C         38.78154       36.78998       94.76910
N         38.93081       38.23286       94.97420
H         35.86115       34.30462       89.78157
H         37.76119       32.92418       91.37554
H         35.93352       35.27538       92.11769
H         37.45277       35.36864       91.16071
H         38.76583       34.54395       93.09766
H         37.26287       34.50774       94.10697
H         36.93252       36.96993       93.66267
H         38.42732       36.98503       92.64755
H         39.78876       36.33304       94.64857
H         38.29160       36.33999       95.66019
H         39.42619       38.66392       94.15942
H         37.99293       38.68210       95.08874
H         39.49406       38.40368       95.83822
N         34.59542       32.68567       92.59296
C         33.76374       31.84432       93.45281
C         32.79344       30.95676       92.66606
O         32.06488       30.20844       93.30360
C         33.06084       32.70428       94.52763
C         32.07608       33.72208       94.02158
O         31.43725       34.51288       94.90383
O         31.84100       33.84202       92.83298
H         34.14246       33.42617       92.03725
H         34.40390       31.13186       94.01739
H         33.84335       33.24126       95.10633
H         32.52128       32.03181       95.22879
N         32.77241       30.91066       91.29740
C         31.97197       29.93722       90.55713
C         30.46711       30.12042       90.65392
O         29.75768       29.22320       90.22046
H         33.41409       31.50446       90.75784
H         32.23229       28.92750       90.94374
H         32.24489       29.94992       89.48206
N         29.90008       31.22359       91.21949
C         28.46337       31.35237       91.47686
C         27.58126       31.56937       90.23874
O         26.40523       31.85490       90.41965
C         28.22108       32.43631       92.55743
C         28.35614       33.86576       92.09121
N         27.34277       34.74296       92.28533
O         29.38652       34.24527       91.56177
H         30.52549       31.95355       91.58394
H         28.13054       30.41418       91.97253
H         28.93271       32.25611       93.39349
H         27.19961       32.29497       92.97148
H         26.47087       34.45063       92.75102
H         27.43510       35.72588       91.99121
N         28.04481       31.43279       88.96142
C         27.21195       31.65700       87.78836
C         27.19933       33.10820       87.35783
O         26.63579       33.38635       86.30721
H         29.00928       31.12764       88.78533
H         26.18752       31.24731       87.93222
H         27.66183       31.09583       86.93943
N         27.83345       34.08062       88.07704
C         28.00414       35.44894       87.60633
C         29.48420       35.77953       87.54347
O         30.26105       35.14467       88.24201
C         27.33885       36.46364       88.54881
C         25.83717       36.36148       88.62272
C         25.04998       37.35295       88.01450
C         25.20609       35.31939       89.32416
C         23.65859       37.30593       88.10063
C         23.80964       35.28189       89.42141
C         23.03219       36.27755       88.80900
O         21.68717       36.26291       88.89938
H         28.26850       33.84280       88.97954
H         27.57267       35.57414       86.58805
H         27.60281       37.47309       88.16433
H         27.75663       36.38301       89.57469
H         25.51415       38.16517       87.46896
H         25.78996       34.55249       89.81614
H         23.06873       38.07770       87.62276
H         23.33301       34.48515       89.97872
H         21.21056       35.58342       89.39629
N         29.95349       36.76148       86.72200
C         31.36124       37.15314       86.67802
C         31.46862       38.66872       86.74327
O         30.85856       39.33005       85.91159
C         32.06264       36.64219       85.38037
C         31.79723       35.13323       85.15227
C         33.58116       36.92049       85.47958
C         32.45932       34.57908       83.88740
H         29.29167       37.22429       86.07842
H         31.91242       36.69605       87.52958
H         31.65141       37.18945       84.50317
H         30.70302       34.98132       85.03587
H         32.13981       34.54339       86.02669
H         33.77105       37.99709       85.61753
H         34.02838       36.37004       86.33601
H         34.12034       36.63885       84.55557
H         32.15385       33.52256       83.74186
H         32.14867       35.16791       82.99810
H         33.56515       34.59113       83.97071
N         32.31219       39.28247       87.62183
C         32.61006       40.71246       87.55919
C         33.99406       40.90362       86.96293
O         34.68796       39.92435       86.75474
C         32.49358       41.35553       88.94815
O         31.18508       41.23297       89.43776
H         32.86486       38.69947       88.26636
H         31.90221       41.22508       86.87199
H         32.73756       42.43729       88.89104
H         33.22481       40.90074       89.65767
H         31.14277       40.37520       89.93441
N         34.44457       42.13037       86.58834
C         35.72308       42.32125       85.90160
C         36.89503       41.89447       86.76246
O         37.72795       41.13360       86.29039
C         35.89403       43.77635       85.47021
H         33.83226       42.94643       86.74532
H         35.72703       41.71801       84.96408
H         36.84733       43.88958       84.90888
H         35.06117       44.05997       84.79131
H         35.90122       44.45633       86.34637
N         36.99461       42.31617       88.05470
C         38.07085       41.91332       88.95759
C         38.22762       40.40978       88.97904
O         39.33567       39.91877       88.81155
C         37.77195       42.40336       90.38126
H         36.23807       42.91185       88.42552
H         39.02956       42.37057       88.62735
H         38.59257       42.10678       91.06979
H         37.68164       43.50931       90.39668
H         36.82155       41.96442       90.75765
N         37.13673       39.61937       89.15046
C         37.19599       38.16634       89.19930
C         37.82274       37.60443       87.92766
O         38.83839       36.92987       88.02599
C         35.78984       37.58734       89.46842
C         35.23930       38.07339       90.83155
C         33.97540       37.36335       91.19995
O         32.87177       37.46598       90.44469
O         33.95157       36.63626       92.17932
H         36.22272       40.08652       89.24034
H         37.84151       37.86430       90.05536
H         35.88225       36.48595       89.49366
H         35.08657       37.85140       88.64964
H         35.04359       39.16356       90.83437
H         35.99990       37.85480       91.61000
N         37.30144       37.88110       86.70082
C         37.89473       37.44919       85.45045
H         38.81522       36.84744       85.60016
H         37.16055       36.84384       84.87962
H         38.16175       38.34414       84.84742
H         36.45721       38.45296       86.63773
Ca        31.73771       35.55317       90.56688
O         30.37497       37.15586       93.11436
H         31.23569       36.67469       93.19765
H         29.85885       36.88603       93.91477
O         29.73282       38.02947       90.27349
H         29.41531       38.59141       89.52300
H         28.96316       37.98894       90.89523

Ca 1.0



