%chk=holoCaM-CaMKII.loop1.water2.frame92.chk
%nprocshared=20
%mem=10GB
%nosave
#b3lyp/svp scf=(tight,noincore,xqc) Test 
#IOP(5/87=12) Density=Current Pop=(MK,readradii) iop(6/33=2) iop(6/42=6)

holoCaM-CaMKII.loop1.water2.frame92 

   0  1 
C          4.11606       51.88595       63.52880
C          2.93201       52.22944       64.36963
O          2.98367       51.99940       65.57060
H          4.91203       51.42811       64.15623
H          3.81513       51.15989       62.74630
H          4.51377       52.80854       63.05987
N          1.81415       52.77521       63.80385
C          0.64222       53.11230       64.59209
C         -0.50751       52.20417       64.19572
O         -1.16807       52.44865       63.19550
C          0.31859       54.61843       64.47798
C         -0.60041       55.07025       65.57695
O         -0.84606       56.25670       65.71381
O         -1.02341       54.17442       66.49173
H          1.79100       52.93900       62.78565
H          0.87461       52.91977       65.66130
H         -0.07804       54.87543       63.47076
H          1.26465       55.18468       64.62722
N         -0.72147       51.05970       64.90512
C         -1.73158       50.06074       64.56198
C         -3.16595       50.54749       64.72790
O         -4.04255       49.83264       64.26009
C         -1.53194       48.78594       65.42873
C         -0.53966       47.76030       64.84984
C          0.86088       48.26876       64.48407
C          1.69236       47.09438       63.93225
N          3.00501       47.53195       63.46315
H         -0.08329       50.86282       65.69064
H         -1.62147       49.78992       63.48780
H         -2.48377       48.21515       65.49869
H         -1.26981       49.07685       66.47089
H         -0.99570       47.34629       63.92339
H         -0.45000       46.93061       65.58596
H          1.36592       48.70489       65.37236
H          0.77277       49.04815       63.69669
H          1.15278       46.61961       63.08114
H          1.82048       46.32711       64.72877
H          3.53945       47.97841       64.24229
H          3.53507       46.69803       63.11877
H          2.89310       48.20658       62.67171
N         -3.50857       51.68679       65.39942
C         -4.90683       52.09570       65.57565
C         -5.19950       53.50281       65.05550
O         -6.35135       53.91046       65.11611
C         -5.34557       51.86683       67.03869
C         -4.62768       52.67125       68.08286
O         -3.79417       53.50454       67.77753
O         -4.91833       52.46901       69.38199
H         -2.76869       52.24280       65.84912
H         -5.57277       51.43263       64.98156
H         -5.18601       50.78996       67.26895
H         -6.43362       52.07226       67.13246
N         -4.24135       54.27349       64.46431
C         -4.52701       55.53896       63.80617
C         -4.97953       56.63476       64.74052
O         -6.04094       57.20179       64.52375
H         -3.27532       53.92664       64.39212
H         -5.28362       55.37494       63.00759
H         -3.59676       55.89928       63.31515
N         -4.17751       57.02900       65.76490
C         -4.43633       58.19389       66.60759
C         -3.29737       59.21643       66.48602
O         -3.27959       60.17254       67.24881
C         -4.71538       57.74726       68.06147
C         -3.58096       57.07801       68.77308
O         -2.49085       56.96714       68.24769
O         -3.76867       56.60520       70.01891
H         -3.31304       56.49593       65.92729
H         -5.36584       58.71469       66.28906
H         -5.57282       57.04013       68.04105
H         -5.01547       58.62973       68.66664
N         -2.35342       59.11739       65.49726
C         -1.30009       60.09781       65.27260
C         -0.12269       60.00080       66.22354
O          0.80193       60.78329       66.05246
H         -2.42937       58.36954       64.79423
H         -1.73376       61.12162       65.28077
H         -0.87869       59.92608       64.25807
N         -0.05945       59.07960       67.22665
C          1.07516       58.95578       68.13761
C          1.63575       57.54477       68.14823
O          0.88822       56.58412       68.02618
C          0.68190       59.36111       69.57668
C          0.35527       60.85622       69.68517
O         -0.37748       58.57539       70.06172
H         -0.85017       58.44447       67.36540
H          1.90078       59.63762       67.83571
H          1.55895       59.19025       70.24010
H         -1.21707       58.89352       69.63862
H          0.12374       61.11195       70.74062
H          1.23261       61.45769       69.36368
H         -0.51511       61.12219       69.04965
N          2.95400       57.36417       68.43659
C          3.59297       56.07032       68.63073
C          3.98014       55.97992       70.09633
O          4.67571       56.86167       70.58463
C          4.84726       55.93235       67.71183
C          4.44879       56.01686       66.21585
C          5.59448       54.61009       68.00169
C          5.65479       56.07718       65.27127
H          3.53738       58.20185       68.59077
H          2.89892       55.23574       68.38553
H          5.53493       56.77665       67.94195
H          3.86643       56.94647       66.04430
H          3.80644       55.15062       65.94143
H          4.94526       53.73319       67.78965
H          6.52378       54.52337       67.40606
H          5.91849       54.56695       69.05942
H          6.29089       56.95345       65.52131
H          6.26883       55.15595       65.31846
H          5.30202       56.18558       64.22456
N          3.60860       54.90326       70.84236
C          4.04062       54.69376       72.21943
C          5.18676       53.71179       72.23211
O          5.55447       53.19886       71.18790
C          2.86972       54.20323       73.11278
C          1.82404       55.29871       73.34226
O          2.28915       53.03008       72.59059
H          3.11044       54.13678       70.37222
H          4.45229       55.63402       72.64844
H          3.25212       53.95434       74.12488
H          1.60784       53.28695       71.91529
H          2.28954       56.16207       73.86278
H          1.41115       55.64796       72.37752
H          1.00306       54.90560       73.98086
N          5.84677       53.44642       73.38677
C          6.99377       52.54949       73.45499
C          6.59719       51.13849       73.05682
O          7.23122       50.56849       72.18142
C          7.63207       52.57113       74.86621
C          8.22194       53.95400       75.18406
O          6.68456       52.22012       75.84207
H          5.53226       53.92551       74.24425
H          7.78005       52.90043       72.74727
H          8.46781       51.83288       74.86741
H          7.18941       51.98468       76.66343
H          8.71348       53.93573       76.17882
H          8.98453       54.22792       74.42379
H          7.43866       54.73996       75.19873
N          5.55190       50.51605       73.66515
C          5.14980       49.14312       73.37325
C          4.77608       48.94891       71.91159
O          5.21285       47.95512       71.34580
C          4.05307       48.67694       74.35488
C          4.65653       48.58766       75.77540
C          3.65977       48.10945       76.83492
C          4.30890       47.99101       78.23086
N          5.32878       46.93846       78.29258
H          5.02508       51.04368       74.37663
H          6.01979       48.47140       73.55615
H          3.71207       47.65782       74.06756
H          3.17982       49.36505       74.32126
H          5.04877       49.57619       76.09572
H          5.50451       47.87491       75.72512
H          3.22843       47.12695       76.54654
H          2.83485       48.85228       76.89472
H          3.51016       47.74799       78.96496
H          4.75720       48.96587       78.52760
H          4.91511       46.01966       78.01226
H          6.14627       47.16191       77.68302
H          5.67931       46.86120       79.27457
N          4.07877       49.88336       71.19844
C          3.88784       49.75987       69.74907
C          5.23922       49.62667       69.05978
O          5.45059       48.64468       68.36205
C          3.10922       50.95770       69.15706
C          1.63524       50.95052       69.59008
C          0.85802       52.04606       68.91596
O          1.17575       53.33509       69.12405
O         -0.07845       51.77104       68.18353
H          3.74079       50.72842       71.68391
H          3.30233       48.83924       69.52609
H          3.12269       50.86521       68.04844
H          3.60232       51.91701       69.42847
H          1.54986       51.06476       70.68952
H          1.18609       49.97401       69.30241
N          6.21529       50.55353       69.25709
C          7.54888       50.45849       68.70024
H          8.28537       50.39732       69.53029
H          7.67723       49.56412       68.05632
H          7.76417       51.36672       68.10080
H          6.02032       51.35278       69.86443
Ca        -1.43719       54.59920       68.65945
O         -0.84690       55.85037       71.26902
H         -0.95677       55.45406       72.16888
H         -1.48058       56.60837       71.26173
O         -2.08961       52.99326       71.03220
H         -2.56327       53.67736       71.56859
H         -2.57985       52.15336       71.21368

Ca 1.0



