%chk=holoCaM.loop4.water3.frame490.chk
%nprocshared=20
%mem=10GB
%nosave
#b3lyp/svp scf=(tight,noincore,xqc) Test 
#IOP(5/87=12) Density=Current Pop=(MK,readradii) iop(6/33=2) iop(6/42=6)

holoCaM.loop4.water3.frame490 

   -3  1 
C         32.50679       45.75329       37.00311
C         32.53010       44.75524       35.88413
O         32.66452       45.17436       34.74383
H         33.45752       46.32916       36.99572
H         31.66122       46.45790       36.85731
H         32.40110       45.25935       37.99039
N         32.39933       43.41565       36.12508
C         32.46894       42.41909       35.05825
C         32.10665       41.02624       35.58320
O         32.70071       40.58119       36.55572
C         33.89254       42.39292       34.44552
C         33.96754       41.60277       33.16973
O         35.15233       41.44747       32.55065
O         32.95982       41.14947       32.65585
H         32.23862       43.10464       37.09554
H         31.73962       42.71502       34.27051
H         34.60475       41.97996       35.19179
H         34.23577       43.41230       34.18104
N         31.14805       40.27892       34.95834
C         30.67792       38.96592       35.41571
C         31.03398       37.84904       34.41670
O         30.81290       36.69037       34.73703
C         29.11644       39.05630       35.60113
C         28.74257       40.19911       36.58487
C         28.46378       37.72707       36.04424
C         27.23986       40.50242       36.63110
H         30.70792       40.67319       34.11654
H         31.16355       38.70612       36.38216
H         28.68657       39.31433       34.60749
H         29.22643       41.14202       36.25725
H         29.11096       39.96070       37.60570
H         28.87152       37.39343       37.02084
H         27.36439       37.82081       36.12053
H         28.59471       36.92938       35.29062
H         26.86795       40.75375       35.61407
H         26.65442       39.65420       37.03612
H         27.05840       41.37301       37.29488
N         31.54504       38.10763       33.17888
C         31.53338       37.10603       32.10763
C         32.63940       37.27415       31.05205
O         32.70379       36.43327       30.16505
C         30.12866       37.07987       31.43739
C         29.66755       38.40997       30.89279
O         30.34542       39.53390       31.18239
O         28.65401       38.47331       30.21633
H         31.69728       39.08364       32.93044
H         31.70318       36.09703       32.54448
H         29.36192       36.73952       32.16623
H         30.15036       36.33843       30.60899
N         33.56212       38.27985       31.08159
C         34.67562       38.38834       30.14228
C         34.32600       38.70376       28.68870
O         35.25430       38.78344       27.89704
H         33.54658       38.95721       31.84842
H         35.25696       37.44147       30.17752
H         35.34575       39.20407       30.49141
N         33.04911       38.89513       28.24713
C         32.70475       39.16189       26.83818
C         33.15944       40.52988       26.29947
O         32.89926       40.79801       25.13400
C         31.17743       39.00228       26.63347
C         30.36017       39.94475       27.46786
O         30.96985       40.86679       28.23106
O         29.14803       39.82112       27.51230
H         32.28424       38.78852       28.92674
H         33.18026       38.37408       26.21267
H         30.90667       37.96683       26.93584
H         30.90602       39.12605       25.56312
N         33.83992       41.43951       27.05519
C         34.29539       42.73017       26.54969
C         33.20941       43.78762       26.36790
O         33.56217       44.89390       25.99078
H         34.11483       41.19211       28.01092
H         34.85682       42.57996       25.60176
H         35.00624       43.15721       27.29055
N         31.89401       43.55142       26.64755
C         30.83824       44.56421       26.57305
C         30.21729       44.77855       27.95294
O         30.64629       44.14697       28.90469
C         29.77653       44.13889       25.53944
C         30.38198       44.02325       24.12980
C         29.35310       43.75785       23.05721
N         29.74274       43.67017       21.76487
O         28.16937       43.63598       23.33939
H         31.61381       42.61949       26.94286
H         31.25344       45.54494       26.25537
H         28.98179       44.91344       25.50192
H         29.31196       43.17192       25.83585
H         31.13664       43.20733       24.11323
H         30.88699       44.98093       23.87837
H         30.73522       43.77674       21.50787
H         29.05170       43.50349       21.01851
N         29.21524       45.69652       28.13281
C         28.64699       46.02405       29.44044
C         27.16510       45.68499       29.46936
O         26.39497       46.29002       28.73794
C         28.87593       47.53761       29.73230
C         28.21898       47.99389       31.04547
C         30.37569       47.86104       29.78337
H         28.86267       46.21824       27.31879
H         29.14889       45.43942       30.24149
H         28.42231       48.13389       28.90840
H         27.12117       47.86772       30.99439
H         28.61504       47.42198       31.91018
H         28.40470       49.07660       31.21105
H         30.87027       47.59782       28.82533
H         30.52560       48.94884       29.95246
H         30.86505       47.30066       30.60811
N         26.69738       44.72315       30.32086
C         25.27620       44.41767       30.46863
C         24.58719       45.54288       31.23531
O         25.25762       46.42997       31.74156
C         25.12207       43.07043       31.23527
C         23.73664       42.47028       31.24618
N         23.10292       42.16375       30.09106
O         23.19781       42.21195       32.31008
H         27.37785       44.18402       30.87365
H         24.84593       44.29802       29.45108
H         25.49094       43.19769       32.27475
H         25.75535       42.30819       30.75365
H         23.54707       42.34261       29.17974
H         22.16571       41.73447       30.10974
N         23.23888       45.55593       31.38084
C         22.53226       46.48148       32.26795
C         22.87324       46.19089       33.73018
O         23.12345       47.13262       34.46833
C         21.01543       46.52039       31.94485
C         20.36788       45.17003       31.74389
C         20.03131       44.76300       30.43843
C         20.11754       44.30309       32.81364
C         19.48543       43.50230       30.20625
C         19.56106       43.03925       32.58057
C         19.25300       42.63169       31.27721
O         18.73857       41.40438       31.06391
H         22.70487       44.85005       30.85977
H         22.86475       47.52598       32.06276
H         20.95011       47.06140       30.97427
H         20.45338       47.14014       32.67686
H         20.21626       45.41282       29.59136
H         20.35502       44.60614       33.82242
H         19.25306       43.20291       29.19194
H         19.37671       42.37149       33.41178
H         18.53086       41.08444       30.17394
N         22.97841       44.91312       34.20214
C         23.40506       44.58608       35.56716
C         24.86357       44.96951       35.85165
O         25.27057       44.84353       36.99871
C         23.26416       43.06744       35.85518
C         21.83673       42.51319       35.72667
C         20.88349       43.16129       36.69095
O         19.89570       43.74823       36.27984
O         21.10618       43.08319       38.01682
H         22.74912       44.15054       33.56017
H         22.75135       45.14242       36.27464
H         23.61156       42.85507       36.89111
H         23.92418       42.50508       35.15792
H         21.85967       41.42357       35.94217
H         21.47778       42.63380       34.68763
N         25.70871       45.42680       34.87991
C         27.10340       45.79914       35.11648
C         27.32502       47.29524       34.93079
O         28.42055       47.75210       35.22767
C         28.02306       45.04902       34.12978
C         27.92025       43.52134       34.23665
C         28.70947       42.81842       33.16247
O         28.64021       41.47977       33.06397
O         29.38189       43.44152       32.35596
H         25.36235       45.51004       33.92233
H         27.39480       45.55563       36.16176
H         29.08329       45.34763       34.29218
H         27.72952       45.35276       33.09980
H         26.86245       43.21474       34.12108
H         28.27635       43.18958       35.23433
N         26.35552       48.11886       34.43562
C         26.52781       49.54378       34.25011
H         25.74091       50.08055       34.82035
H         27.51927       49.90147       34.59588
H         26.41788       49.78746       33.17251
H         25.44840       47.73875       34.15045
Ca        30.11513       41.48436       30.16526
O         27.45721       41.89961       29.15274
H         28.14340       42.00959       28.45033
H         27.62036       41.00589       29.54872
O         33.42285       42.54774       30.01197
H         33.36433       41.56972       30.15484
H         34.39399       42.73661       29.97120
O         32.12658       44.43127       31.62862
H         31.60969       44.83471       32.36854
H         32.25085       45.16972       30.98145

Ca 1.0



