%chk=holoCaM-CaMKII.loop4.water2.frame75.chk
%nprocshared=20
%mem=10GB
%nosave
#b3lyp/svp scf=(tight,noincore,xqc) Test 
#IOP(5/87=12) Density=Current Pop=(MK,readradii) iop(6/33=2) iop(6/42=6)

holoCaM-CaMKII.loop4.water2.frame75 

   -3  1 
C         96.63231       46.68092       83.19919
C         98.06472       46.34084       83.49189
O         98.85930       47.24624       83.68286
H         96.20543       47.25224       84.04984
H         96.57604       47.29542       82.27707
H         96.01978       45.76610       83.04988
N         98.46205       45.04237       83.55544
C         99.82552       44.62106       83.86148
C        100.79296       45.07787       82.76835
O        100.54359       44.79222       81.60540
C         99.84442       43.08466       83.98768
C        101.12991       42.53038       84.51688
O        102.12164       43.33404       84.94082
O        101.25973       41.32321       84.59676
H         97.74549       44.31448       83.40462
H        100.11161       45.04219       84.85252
H         99.62799       42.63357       82.99505
H         99.05144       42.76365       84.69910
N        101.93084       45.76778       83.08139
C        102.88550       46.28198       82.09364
C        104.21748       45.52108       82.13584
O        104.93824       45.58098       81.14926
C        103.10708       47.81799       82.31758
C        101.75231       48.57249       82.33982
C        104.05375       48.42956       81.26140
C        101.86730       50.05000       82.72637
H        102.11928       45.94305       84.07059
H        102.46723       46.11915       81.07561
H        103.57860       47.94606       83.31828
H        101.10582       48.11575       83.11230
H        101.24465       48.48172       81.35518
H        104.24104       49.50286       81.45710
H        105.05614       47.96194       81.29256
H        103.62694       48.31622       80.24227
H        102.35797       50.15020       83.71825
H        102.43323       50.63247       81.97324
H        100.85096       50.49211       82.79212
N        104.61368       44.78125       83.21481
C        105.87544       44.03683       83.26340
C        105.65043       42.52708       83.35463
O        106.62610       41.79343       83.43539
C        106.78279       44.57743       84.39324
C        106.26996       44.40684       85.79719
O        107.01957       44.84937       86.82443
O        105.19928       43.86967       86.02465
H        104.00816       44.74232       84.04193
H        106.45314       44.19438       82.32623
H        106.95524       45.66168       84.21583
H        107.76880       44.06709       84.33144
N        104.40157       41.98612       83.25108
C        104.14487       40.56024       83.14022
C        104.31613       39.73237       84.39947
O        104.09748       38.53335       84.29020
H        103.59538       42.60424       83.10082
H        104.78557       40.14597       82.33139
H        103.08915       40.42303       82.82119
N        104.68309       40.24057       85.61590
C        104.84291       39.36160       86.78057
C        103.53794       38.68856       87.21775
O        103.61476       37.69339       87.92447
C        105.53710       40.06789       87.96219
C        104.77942       41.25045       88.49162
O        103.66059       41.11085       88.95285
O        105.35241       42.46807       88.49585
H        104.89217       41.24431       85.70504
H        105.53512       38.54705       86.46648
H        106.54108       40.40820       87.62823
H        105.68489       39.33991       88.78974
N        102.31616       39.15559       86.82665
C        101.06269       38.45372       87.07295
C        100.04249       39.22883       87.88438
O         98.93438       38.72429       88.00485
H        102.27020       40.02278       86.28358
H        101.22856       37.47959       87.58052
H        100.61161       38.23672       86.08050
N        100.31775       40.41939       88.49475
C         99.32870       41.15313       89.28866
C         99.16552       42.57139       88.77140
O         99.85211       42.94695       87.82968
C         99.74687       41.18367       90.77404
C         99.89447       39.77703       91.37090
C        100.07391       39.85203       92.86657
N        101.19871       39.39437       93.46187
O         99.18071       40.32754       93.55277
H        101.26444       40.81447       88.42392
H         98.33259       40.66201       89.23183
H         98.95891       41.71746       91.34587
H        100.70190       41.73806       90.90064
H        100.75836       39.26667       90.89166
H         98.97963       39.17929       91.16883
H        101.96704       38.99141       92.90731
H        101.30169       39.44863       94.48650
N         98.27221       43.42581       89.35771
C         98.12576       44.81915       88.95814
C         98.48735       45.69330       90.15078
O         97.76448       45.70374       91.13831
C         96.68737       45.10080       88.44504
C         96.55855       46.53845       87.91356
C         96.29164       44.11418       87.33411
H         97.68242       43.08669       90.13290
H         98.82607       45.04288       88.12274
H         95.96915       44.96410       89.28434
H         95.51884       46.72826       87.57082
H         96.79358       47.27759       88.70593
H         97.24843       46.70216       87.05690
H         95.25369       44.31711       86.99385
H         96.97988       44.19728       86.46595
H         96.31600       43.06977       87.71186
N         99.64237       46.41213       90.13787
C        100.10245       47.25580       91.24101
C         99.22397       48.51124       91.30511
O         98.39073       48.67272       90.42666
C        101.60197       47.58697       90.97963
C        102.43784       48.07628       92.13737
N        103.74375       48.36763       91.93148
O        101.97560       48.16597       93.26245
H        100.24370       46.31090       89.31637
H        100.03565       46.65597       92.17486
H        101.67124       48.30027       90.13413
H        102.10974       46.64740       90.66592
H        104.16102       48.27671       90.99318
H        104.34292       48.67938       92.70985
N         99.32624       49.44523       92.29512
C         98.53088       50.67306       92.28887
C         98.92777       51.54037       91.10780
O         98.06108       51.96634       90.35905
C         98.70015       51.46349       93.60409
C         97.79613       52.68061       93.62333
C         96.39954       52.53137       93.52178
C         98.33624       53.97329       93.72974
C         95.56433       53.65045       93.51183
C         97.49616       55.09290       93.72520
C         96.10689       54.93391       93.61200
O         95.28535       56.00294       93.59786
H         99.96997       49.28877       93.07687
H         97.45816       50.39399       92.21052
H         99.76566       51.75847       93.72795
H         98.42632       50.81186       94.46161
H         95.95130       51.54961       93.44282
H         99.40620       54.11716       93.81096
H         94.49304       53.51802       93.42341
H         97.92581       56.08329       93.80547
H         95.61771       56.90944       93.66152
N        100.24240       51.80840       90.87330
C        100.72795       52.55208       89.71450
C        100.20877       51.95489       88.41147
O         99.66920       52.69673       87.60189
C        102.27902       52.66754       89.73259
C        103.06028       51.33734       89.72234
C        104.53974       51.57951       89.81600
O        105.11930       52.20080       88.93963
O        105.23780       51.09997       90.86373
H        100.92810       51.42928       91.54159
H        100.34854       53.59723       89.77508
H        102.56200       53.22227       90.65432
H        102.59918       53.27827       88.85905
H        102.86782       50.77692       88.78929
H        102.76100       50.71023       90.58565
N        100.30736       50.62015       88.15428
C         99.84907       50.01071       86.90440
C         98.34536       50.18197       86.70685
O         97.90639       50.23052       85.56650
C        100.26164       48.51867       86.82301
C        101.79958       48.37325       86.89142
C        102.29539       46.95866       86.81605
O        103.15722       46.65906       86.00874
O        101.86863       46.03810       87.69576
H        100.72366       50.02342       88.87993
H        100.35876       50.53494       86.06475
H         99.90226       48.08977       85.86519
H         99.78173       47.95899       87.65512
H        102.17083       48.76997       87.85076
H        102.26021       48.96480       86.07042
N         97.50470       50.31274       87.77147
C         96.08094       50.56181       87.66831
H         95.52228       49.73971       88.16261
H         95.84213       51.51280       88.19283
H         95.73896       50.64969       86.61693
H         97.88903       50.24307       88.71562
Ca       102.65332       43.92055       87.72436
O        104.71296       45.84080       89.20159
H        104.77897       46.80787       89.00338
H        104.87781       45.40146       88.33101
O        102.91507       43.46140       90.83230
H        103.10046       42.52253       91.08541
H        103.78992       43.91552       90.92040

Ca 1.0



