%chk=holoCaM-CaMKII.loop4.water1.frame475.chk
%nprocshared=20
%mem=10GB
%nosave
#b3lyp/svp scf=(tight,noincore,xqc) Test 
#IOP(5/87=12) Density=Current Pop=(MK,readradii) iop(6/33=2) iop(6/42=6)

holoCaM-CaMKII.loop4.water1.frame475 

   -3  1 
C         94.88314       49.35062       58.02590
C         94.99134       48.14374       57.14515
O         94.07428       47.33735       57.10944
H         94.94725       50.26713       57.40111
H         93.91695       49.35672       58.57234
H         95.71641       49.35236       58.75933
N         96.09757       47.97540       56.37526
C         96.26849       46.86322       55.45136
C         96.40095       45.53890       56.20149
O         97.13455       45.50490       57.18046
C         97.53407       47.09060       54.60652
C         97.58032       46.13231       53.46657
O         98.60426       45.99426       52.83099
O         96.47536       45.45996       53.11207
H         96.83033       48.70188       56.41971
H         95.39194       46.85197       54.76549
H         98.42926       46.95955       55.25310
H         97.55860       48.11248       54.17021
N         95.75172       44.40455       55.78600
C         95.75620       43.15911       56.55766
C         96.49163       42.00342       55.84831
O         96.77365       41.02614       56.52697
C         94.27731       42.79299       56.93694
C         93.53394       44.04196       57.49553
C         94.20716       41.62912       57.94686
C         92.04354       43.82935       57.76428
H         95.18138       44.44068       54.93114
H         96.31700       43.33319       57.50188
H         93.75165       42.48548       56.00607
H         93.57239       44.84973       56.73858
H         94.03125       44.40675       58.42005
H         94.71991       41.90658       58.89276
H         93.15768       41.35951       58.17517
H         94.65830       40.70422       57.54391
H         91.87314       43.10820       58.58669
H         91.58754       44.79640       58.06658
H         91.53428       43.47518       56.84336
N         96.84717       42.02235       54.52168
C         97.56780       40.91363       53.87057
C         98.91468       41.32239       53.27022
O         99.59713       40.46559       52.72482
C         96.65004       40.13266       52.89387
C         96.33550       40.64573       51.50383
O         95.59365       39.97427       50.80649
O         96.90699       41.72751       50.94729
H         96.57398       42.82716       53.95557
H         97.82141       40.15378       54.64314
H         95.69743       39.93260       53.43130
H         97.12982       39.14427       52.71400
N         99.40218       42.58802       53.40917
C        100.73741       42.99708       53.00204
C        100.93647       43.11447       51.50743
O        101.89492       42.56097       50.98878
H         98.84814       43.29010       53.91839
H        101.49940       42.32914       53.46186
H        100.91481       44.01810       53.40480
N        100.11166       43.91242       50.77538
C        100.35654       44.31086       49.38851
C        100.45934       45.83788       49.26578
O        100.57253       46.33614       48.15289
C         99.25210       43.74821       48.46921
C         97.86658       44.29184       48.70676
O         96.94131       43.88675       48.02255
O         97.63064       45.23416       49.63825
H         99.28629       44.29951       51.24700
H        101.31573       43.88079       49.02503
H         99.23059       42.64347       48.58772
H         99.52405       43.97094       47.41377
N        100.43127       46.64471       50.36611
C        100.46112       48.09283       50.33419
C         99.20769       48.70005       49.73424
O         99.32509       49.53541       48.85826
H        100.41867       46.22534       51.30314
H        101.37580       48.45060       49.81298
H        100.51106       48.45930       51.38402
N         97.97820       48.36879       50.23845
C         96.72507       49.05852       49.88226
C         95.56277       48.59337       50.75686
O         95.69134       47.61645       51.46838
C         96.38024       48.99643       48.37011
C         96.22764       47.61697       47.70008
C         94.98698       46.84397       48.08732
N         93.99925       46.64184       47.18420
O         94.87510       46.37162       49.20603
H         97.96443       47.65541       50.97379
H         96.87565       50.12800       50.14349
H         97.19075       49.51372       47.82118
H         95.46184       49.59094       48.17246
H         97.13694       47.00210       47.85196
H         96.16326       47.82229       46.60959
H         94.06049       47.02262       46.22899
H         93.16135       46.10563       47.44381
N         94.39960       49.31909       50.79459
C         93.29370       48.96166       51.68039
C         91.99020       48.92089       50.88928
O         91.52765       49.96087       50.44828
C         93.22783       49.98236       52.85799
C         92.10980       49.64344       53.85075
C         94.56057       50.02736       53.62584
H         94.33061       50.18574       50.24690
H         93.46683       47.95988       52.12748
H         93.03458       50.99867       52.44978
H         92.08062       50.39092       54.67211
H         91.12881       49.67302       53.34418
H         92.27346       48.64089       54.29815
H         94.50452       50.75992       54.45896
H         94.79779       49.03011       54.04728
H         95.39335       50.34169       52.96382
N         91.33897       47.73665       50.68080
C         90.02478       47.64878       50.03700
C         88.95256       48.20686       50.95666
O         89.25818       48.57542       52.07839
C         89.67103       46.16562       49.75673
C         90.58555       45.54902       48.73439
N         91.36285       44.48637       49.04597
O         90.60758       46.00441       47.60066
H         91.78869       46.86922       51.00085
H         90.03301       48.20829       49.07578
H         88.64131       46.07447       49.35118
H         89.70359       45.59505       50.71194
H         91.35673       44.08342       49.99414
H         91.97402       44.06352       48.33217
N         87.64631       48.24127       50.57029
C         86.57218       48.51860       51.51754
C         86.53039       47.39562       52.54761
O         86.47432       47.66506       53.73901
C         85.20228       48.58541       50.80818
C         84.11681       48.94312       51.80178
C         84.11720       50.20312       52.42758
C         83.11357       48.01671       52.13142
C         83.13755       50.52686       53.36973
C         82.13726       48.34110       53.07964
C         82.14775       49.59780       53.70313
O         81.21724       49.92182       54.62355
H         87.40309       47.98925       49.59981
H         86.75127       49.50398       52.00215
H         84.99227       47.60200       50.33214
H         85.21663       49.35189       50.00345
H         84.87775       50.93585       52.18859
H         83.09601       47.03782       51.66912
H         83.15222       51.49970       53.84544
H         81.37700       47.61330       53.33322
H         80.52077       49.30549       54.89115
N         86.58311       46.09656       52.12183
C         86.51808       44.91498       52.98513
C         87.62479       44.85947       54.04521
O         87.54991       43.99766       54.90905
C         86.54531       43.65647       52.07434
C         86.31577       42.31144       52.77980
C         86.31181       41.18777       51.78060
O         85.48326       41.16147       50.88406
O         87.22317       40.20016       51.87180
H         86.65289       45.94189       51.10391
H         85.54190       44.95355       53.51704
H         87.51947       43.62364       51.53536
H         85.73611       43.77531       51.31897
H         85.34095       42.32633       53.31230
H         87.12477       42.11229       53.50953
N         88.64897       45.75903       54.08393
C         89.66567       45.78142       55.12616
C         89.44407       47.00980       55.98896
O         89.24397       46.86310       57.18697
C         91.07450       45.74989       54.49823
C         91.29337       44.46688       53.67915
C         92.68937       44.37710       53.13115
O         93.46356       43.31993       53.43894
O         93.12112       45.23927       52.38429
H         88.71728       46.48350       53.36305
H         89.57811       44.89533       55.79404
H         91.82836       45.79768       55.31321
H         91.21529       46.62922       53.83411
H         90.57715       44.43877       52.83054
H         91.10867       43.58144       54.32475
N         89.41277       48.25405       55.44182
C         89.12532       49.44112       56.21585
H         88.11966       49.35346       56.68100
H         89.89304       49.58002       57.00453
H         89.12539       50.33257       55.55188
H         89.56800       48.36356       54.43589
Ca        96.54034       43.74289       51.74753
O         94.13514       42.83915       49.56799
H         94.00628       42.52436       48.63790
H         93.51859       42.28145       50.10599

Ca 1.0



