%chk=holoCaM.loop2.water1.frame201.chk
%nprocshared=20
%mem=10GB
%nosave
#b3lyp/svp scf=(tight,noincore,xqc) Test 
#IOP(5/87=12) Density=Current Pop=(MK,readradii) iop(6/33=2) iop(6/42=6)

holoCaM.loop2.water1.frame201 

   -2  1 
C         35.58283       44.69450      102.28217
C         36.46952       43.80847      103.11128
O         36.92433       42.78355      102.62872
H         34.59502       44.81653      102.77138
H         36.06025       45.69538      102.18664
H         35.44132       44.28170      101.26110
N         36.80366       44.19252      104.37033
C         37.80246       43.51075      105.18652
C         37.32938       42.15712      105.71309
O         36.29482       42.11397      106.36497
C         38.15320       44.40841      106.39697
C         39.43668       44.02285      107.07593
O         39.82077       44.67936      108.18559
O         40.17249       43.17757      106.59447
H         36.40847       45.08323      104.71205
H         38.72150       43.40948      104.56777
H         37.31016       44.39565      107.12276
H         38.29572       45.45723      106.06628
N         38.08389       41.02917      105.54449
C         37.76155       39.74163      106.16344
C         38.85333       39.25262      107.12885
O         38.64873       38.20821      107.73238
C         37.54336       38.69491      105.06332
H         38.94139       41.09136      104.98077
H         36.82038       39.81921      106.74951
H         36.72447       39.01607      104.38535
H         38.47029       38.55970      104.46428
H         37.26099       37.71397      105.50406
N         40.04750       39.90367      107.28951
C         41.17052       39.36585      108.06749
C         41.84803       40.37621      109.00904
O         42.78251       39.97259      109.68838
C         42.19262       38.75289      107.08667
C         42.50948       39.67279      105.95006
O         43.01162       40.89433      106.16928
O         42.25109       39.33261      104.80585
H         40.23142       40.74220      106.72997
H         40.83298       38.53057      108.71913
H         41.74480       37.83318      106.64971
H         43.12222       38.45370      107.61562
N         41.43860       41.67056      109.14762
C         42.02303       42.59904      110.11546
C         43.46804       43.03106      109.87385
O         43.98054       43.75593      110.71526
H         40.62087       41.99379      108.62262
H         41.95676       42.13485      111.12343
H         41.41181       43.52671      110.13689
N         44.19596       42.64927      108.78429
C         45.60616       43.01092      108.58924
C         45.86345       44.50657      108.33938
O         47.02252       44.86546      108.17902
C         46.23174       42.15689      107.45651
C         45.72348       42.45634      106.07049
N         46.19127       41.75114      105.01603
O         44.90031       43.33830      105.88806
H         43.75638       42.02347      108.10469
H         46.15463       42.71802      109.51196
H         46.04925       41.08296      107.68181
H         47.33201       42.31576      107.44726
H         46.88471       41.00059      105.14825
H         45.85968       41.95724      104.06405
N         44.86510       45.43833      108.30880
C         45.11257       46.86083      108.11625
C         45.46894       47.23034      106.69076
O         46.13106       48.24006      106.50617
H         43.89103       45.15836      108.48005
H         45.89207       47.21361      108.82874
H         44.18722       47.42441      108.35844
N         44.93510       46.55135      105.63367
C         45.15913       46.91038      104.22712
C         44.07937       46.31848      103.31291
O         43.23999       45.54578      103.75197
C         46.55933       46.41577      103.72505
C         47.74313       47.24534      104.21941
O         46.76664       45.07140      104.07730
H         44.29221       45.77945      105.85241
H         45.05207       48.01025      104.10335
H         46.62957       46.51766      102.61934
H         46.16324       44.52290      103.51256
H         48.67751       46.87205      103.74673
H         47.60982       48.30760      103.91877
H         47.88100       47.16839      105.31207
N         44.09341       46.63641      101.98410
C         43.25033       46.00736      100.97629
C         44.10412       45.00199      100.23641
O         45.25779       45.26711       99.92964
C         42.58754       47.05329      100.02018
C         41.42547       47.76066      100.76686
C         42.07246       46.38843       98.72010
C         40.66981       48.79734       99.92885
H         44.82178       47.27952      101.64021
H         42.43221       45.42225      101.45002
H         43.35435       47.79569       99.70614
H         41.82930       48.26813      101.66822
H         40.68460       46.99903      101.09986
H         42.90816       45.91317       98.16560
H         41.29850       45.62581       98.93815
H         41.66306       47.13544       98.01288
H         41.36032       49.58680       99.56823
H         40.15824       48.32690       99.06329
H         39.87545       49.26335      100.54846
N         43.54176       43.81429       99.89069
C         44.23814       42.72780       99.22911
C         43.69693       42.58142       97.82574
O         42.78854       43.30959       97.45102
C         43.97408       41.42364      100.00366
C         44.23365       41.53426      101.47019
O         43.55886       42.45983      102.17612
O         44.94172       40.71995      102.03938
H         42.54803       43.66627      100.10322
H         45.32846       42.93707       99.17782
H         44.55117       40.57920       99.57004
H         42.88946       41.18782       99.92280
N         44.22169       41.65661       96.97718
C         43.72438       41.50767       95.62011
C         42.27001       41.04225       95.60531
O         41.49624       41.66800       94.89340
C         44.63476       40.60083       94.77047
C         44.24483       40.68647       93.31472
C         44.36446       41.90760       92.62253
C         43.75387       39.56011       92.63754
C         43.99242       41.99891       91.28090
C         43.38136       39.65687       91.29307
C         43.49975       40.87462       90.61612
H         45.01393       41.07802       97.29273
H         43.78107       42.51454       95.15157
H         44.59575       39.55715       95.12846
H         45.68967       40.93979       94.85985
H         44.74671       42.79142       93.11867
H         43.65078       38.61255       93.15109
H         44.08621       42.94272       90.75890
H         42.99832       38.78758       90.77619
H         43.21049       40.94822       89.57644
N         41.79111       39.99264       96.35193
C         40.38390       39.61345       96.41084
C         39.47920       40.77961       96.77456
O         38.49052       41.01627       96.09712
C         40.32754       38.56637       97.53993
C         41.69036       37.93155       97.44739
C         42.58136       39.14950       97.23142
H         40.09287       39.15666       95.43845
H         40.30375       39.06083       98.53812
H         39.46129       37.87300       97.48771
H         41.97722       37.29916       98.31525
H         41.71081       37.31155       96.52315
H         42.75505       39.69234       98.17945
H         43.53481       38.79766       96.80522
N         39.77316       41.53686       97.86995
C         38.91820       42.60599       98.38194
C         38.83493       43.79762       97.43487
O         37.98833       44.65335       97.65310
C         39.45790       43.09294       99.74293
C         39.53137       41.96418      100.79562
C         40.24523       42.37502      102.05098
O         40.72960       43.48739      102.17164
O         40.40413       41.47633      103.03756
H         40.63876       41.30816       98.37757
H         37.89759       42.18809       98.52964
H         38.82782       43.91780      100.14424
H         40.47083       43.49221       99.55953
H         40.09074       41.08851      100.41699
H         38.50445       41.62467      101.03657
N         39.70080       43.94372       96.39282
C         39.67255       45.04752       95.45735
H         40.63427       45.59991       95.51445
H         39.55433       44.64639       94.42838
H         38.84171       45.75410       95.65853
H         40.44399       43.25547       96.25733
Ca        43.08656       42.07471      104.29549
O         40.19260       45.66106      103.88652
H         39.55519       45.51505      103.14318
H         39.78075       46.38326      104.42149

Ca 1.0



