%chk=holoCaM-CaMKII.loop4.water2.frame164.chk
%nprocshared=20
%mem=10GB
%nosave
#b3lyp/svp scf=(tight,noincore,xqc) Test 
#IOP(5/87=12) Density=Current Pop=(MK,readradii) iop(6/33=2) iop(6/42=6)

holoCaM-CaMKII.loop4.water2.frame164 

   -3  1 
C         87.91510       51.88682       13.61699
C         87.61691       50.66181       14.42217
O         88.32368       49.67337       14.30014
H         88.79841       51.72404       12.96475
H         87.03651       52.14152       12.98930
H         88.12992       52.73146       14.30634
N         86.58539       50.67578       15.30525
C         86.27962       49.55808       16.18389
C         85.78196       48.35454       15.38245
O         84.87042       48.52685       14.58515
C         85.24491       50.00762       17.24112
C         85.22412       49.08839       18.42001
O         84.51450       49.33707       19.37621
O         86.03845       48.02351       18.43649
H         86.03818       51.54671       15.39563
H         87.21477       49.31593       16.73285
H         84.23435       50.11567       16.79106
H         85.55882       50.99150       17.65253
N         86.32232       47.10746       15.55074
C         85.95062       45.94544       14.74199
C         85.14594       44.95088       15.57383
O         83.98937       44.73404       15.23714
C         87.22100       45.29789       14.10071
C         87.99701       46.35009       13.26516
C         86.83997       44.07731       13.23796
C         89.31311       45.84111       12.67076
H         87.03217       46.97317       16.27856
H         85.28783       46.27087       13.90778
H         87.89034       44.94711       14.91713
H         88.26357       47.19659       13.92704
H         87.35443       46.73651       12.44422
H         86.30677       43.31541       13.84313
H         86.18926       44.38343       12.39149
H         87.74188       43.57342       12.83585
H         89.97941       45.45525       13.46987
H         89.14200       45.04462       11.91995
H         89.82941       46.67945       12.15627
N         85.67627       44.28591       16.64583
C         84.89586       43.31361       17.41691
C         83.64777       43.95603       18.03301
O         82.57842       43.38514       17.86594
C         85.74486       42.47843       18.42767
C         86.45857       43.23447       19.51039
O         87.08676       42.64746       20.37568
O         86.40028       44.56210       19.51099
H         86.66062       44.45249       16.89758
H         84.53325       42.53379       16.70681
H         86.51137       41.90677       17.86059
H         85.06345       41.74554       18.91294
N         83.67868       45.17236       18.66414
C         82.48259       45.86008       19.13286
C         82.47242       46.21000       20.61159
O         81.47888       46.78953       21.02771
H         84.56039       45.68896       18.73431
H         81.57147       45.25558       18.93537
H         82.38294       46.80516       18.55657
N         83.48165       45.89193       21.48168
C         83.36265       46.16805       22.92057
C         83.28293       47.65839       23.26951
O         82.94772       47.96503       24.40631
C         84.46858       45.45642       23.73772
C         85.86967       45.96114       23.52188
O         86.89059       45.38424       24.18243
O         86.09702       46.89312       22.77424
H         84.30379       45.37825       21.13557
H         82.40310       45.70483       23.24331
H         84.44598       44.37398       23.48832
H         84.23987       45.56251       24.82003
N         83.56476       48.63349       22.35746
C         83.38731       50.05906       22.60005
C         84.66246       50.87968       22.49098
O         84.55488       52.09347       22.54985
H         83.88743       48.35385       21.42545
H         82.94281       50.25720       23.59978
H         82.66940       50.43511       21.83923
N         85.89870       50.30558       22.38092
C         87.14275       51.07855       22.32487
C         87.98587       50.67992       21.12097
O         87.61204       49.78637       20.38164
C         87.94675       50.84758       23.62233
C         87.23516       51.43910       24.85031
C         88.05034       51.31743       26.11681
N         87.58710       51.85765       27.26684
O         89.13263       50.74759       26.11327
H         85.97814       49.28449       22.39098
H         86.93464       52.16629       22.23159
H         88.92830       51.36064       23.54697
H         88.13389       49.75991       23.76533
H         86.25442       50.94028       25.00303
H         87.05988       52.52151       24.66523
H         86.68321       52.35213       27.28797
H         88.13837       51.79225       28.13543
N         89.17192       51.32567       20.88893
C         90.08701       50.98626       19.80631
C         91.39608       50.50190       20.40913
O         92.10735       51.28080       21.02556
C         90.28085       52.22057       18.87716
C         91.43525       52.05026       17.87568
C         88.98308       52.50228       18.10275
H         89.45445       52.08852       21.51898
H         89.67757       50.16090       19.19416
H         90.52897       53.10554       19.50493
H         91.53313       52.96178       17.24812
H         92.40136       51.92475       18.40660
H         91.26480       51.17949       17.21560
H         89.10038       53.40572       17.46740
H         88.73381       51.64070       17.44394
H         88.13463       52.67413       18.79672
N         91.76069       49.19296       20.26676
C         93.02937       48.65106       20.75008
C         94.17503       49.14797       19.86759
O         93.91672       49.79302       18.86085
C         92.92724       47.09896       20.73440
C         94.09898       46.35604       21.32681
N         94.47385       46.55525       22.61167
O         94.70336       45.54347       20.64379
H         91.09540       48.55103       19.81095
H         93.17482       48.98161       21.80150
H         92.76039       46.75680       19.68829
H         92.03912       46.80461       21.33037
H         93.97264       47.22447       23.21254
H         95.27225       46.03624       23.00700
N         95.47402       48.86165       20.16850
C         96.59250       49.20234       19.28991
C         96.43454       48.51953       17.94206
O         96.78420       49.10692       16.92848
C         97.92570       48.74912       19.92199
C         99.11293       49.10662       19.05458
C         99.42069       50.45168       18.78590
C         99.91774       48.09655       18.50024
C        100.51252       50.77936       17.97671
C        101.00808       48.42679       17.68959
C        101.30927       49.77074       17.42566
O        102.35817       50.10384       16.64664
H         95.67813       48.35838       21.04260
H         96.62248       50.30558       19.15015
H         97.88279       47.64798       20.08023
H         98.05439       49.22830       20.91615
H         98.81670       51.24752       19.20268
H         99.69884       47.05281       18.68833
H        100.73882       51.81934       17.77753
H        101.61674       47.63754       17.26648
H        102.93499       49.43713       16.24719
N         95.93085       47.25712       17.87318
C         95.72724       46.52629       16.63103
C         94.73358       47.27455       15.75191
O         95.05515       47.59960       14.61781
C         95.23027       45.09832       16.96563
C         95.32930       44.13372       15.77924
C         94.90210       42.75293       16.19305
O         95.78749       41.73759       16.17451
O         93.75524       42.54578       16.55655
H         95.67691       46.79491       18.75558
H         96.71104       46.43205       16.11970
H         94.19279       45.13244       17.36786
H         95.88713       44.68025       17.76115
H         96.39117       44.09341       15.44904
H         94.70470       44.47679       14.92858
N         93.50852       47.61327       16.24972
C         92.48907       48.35906       15.50615
C         92.91178       49.79117       15.17521
O         92.19201       50.44548       14.43304
C         91.18049       48.39815       16.32922
C         90.58458       46.99030       16.50499
C         89.41448       46.95546       17.44253
O         88.85137       45.89492       17.65442
O         88.98635       48.06457       18.07077
H         93.29593       47.31915       17.21467
H         92.29319       47.83160       14.54579
H         90.41853       49.03637       15.83021
H         91.41029       48.84193       17.32245
H         91.33962       46.29122       16.91540
H         90.26471       46.61770       15.51064
N         94.04254       50.35132       15.68973
C         94.50028       51.69155       15.38532
H         95.51847       51.63540       14.94400
H         93.83638       52.21710       14.66870
H         94.55363       52.28358       16.32309
H         94.61403       49.81785       16.34531
Ca        86.61214       46.67642       20.10199
O         89.78416       44.53751       20.12608
H         89.44878       43.92900       19.42056
H         90.60409       44.93582       19.73935
O         89.50046       46.99426       22.09211
H         88.66195       47.36661       22.46104
H         90.09633       46.90479       22.87785

Ca 1.0



