%chk=holoCaM.loop3.water3.frame490.chk
%nprocshared=20
%mem=10GB
%nosave
#b3lyp/svp scf=(tight,noincore,xqc) Test 
#IOP(5/87=12) Density=Current Pop=(MK,readradii) iop(6/33=2) iop(6/42=6)

holoCaM.loop3.water3.frame490 

   0  1 
C         22.45453       53.98308       24.55433
C         22.52833       52.68459       23.80278
O         23.26790       52.60347       22.83451
H         21.73917       53.92265       25.40238
H         23.45552       54.24046       24.95802
H         22.11535       54.78897       23.87046
N         21.78167       51.61826       24.20122
C         21.78091       50.32282       23.52171
C         21.22823       50.51607       22.11301
O         20.06854       50.88646       21.98577
C         20.90278       49.37062       24.35535
C         20.79665       47.91913       23.99587
O         21.56651       47.26935       23.09306
O         19.97255       47.27448       24.61930
H         21.18917       51.74063       25.03819
H         22.81886       49.93638       23.51110
H         19.87013       49.78668       24.34047
H         21.25281       49.39366       25.41117
N         22.02560       50.38837       21.01198
C         21.57639       50.78128       19.67989
C         20.70393       49.72299       19.02491
O         20.04787       50.04896       18.04541
C         22.76774       51.17894       18.77319
C         23.54896       52.36926       19.36617
C         24.65593       52.86777       18.42601
C         25.46819       54.03609       19.02203
N         24.64386       55.21619       19.29718
H         23.01011       50.14270       21.14047
H         20.95607       51.69958       19.79040
H         22.37078       51.48440       17.78022
H         23.45089       50.31460       18.62655
H         24.00891       52.07706       20.33236
H         22.82969       53.19469       19.54466
H         24.20646       53.19097       17.46195
H         25.35959       52.03255       18.21788
H         26.25763       54.31479       18.28902
H         25.97348       53.71141       19.95842
H         24.12521       55.50729       18.43702
H         23.97257       55.02635       20.07478
H         25.26438       56.00192       19.59861
N         20.65924       48.43734       19.48304
C         19.78686       47.41002       18.91469
C         18.92463       46.72632       19.97674
O         18.20402       45.80116       19.62701
C         20.59898       46.39082       18.08268
C         21.64851       45.59655       18.80918
O         21.92697       45.81014       20.10606
O         22.27333       44.74500       18.19823
H         21.28763       48.16610       20.25150
H         19.07946       47.86423       18.18590
H         21.09924       46.93414       17.25169
H         19.88178       45.67344       17.62581
N         18.89714       47.14494       21.27718
C         18.04083       46.53622       22.28485
C         18.49033       45.16012       22.76036
O         17.78463       44.59810       23.58599
H         19.43077       47.97791       21.55872
H         17.00169       46.48526       21.89282
H         18.00483       47.19792       23.17372
N         19.62305       44.54145       22.30589
C         19.98997       43.18260       22.71371
C         20.35505       43.03425       24.19545
O         20.41861       41.90055       24.65062
C         21.12395       42.59982       21.83159
C         22.45907       43.30332       21.93463
N         23.53833       42.79597       21.29815
O         22.57908       44.32509       22.58883
H         20.19607       45.01335       21.59944
H         19.09374       42.54933       22.52622
H         20.80721       42.61059       20.76595
H         21.27481       41.53953       22.12874
H         23.46439       41.93155       20.74302
H         24.45530       43.25926       21.37656
N         20.64060       44.10393       24.99546
C         20.95639       43.99514       26.41798
C         22.36933       44.43788       26.77582
O         22.70757       44.36505       27.94839
H         20.63931       45.03891       24.58234
H         20.85206       42.94450       26.76648
H         20.22611       44.60746       26.98763
N         23.26737       44.83901       25.83061
C         24.68302       45.09361       26.09539
C         25.13785       46.41126       25.50336
O         24.72346       46.73764       24.40305
C         25.49796       43.99121       25.39643
C         25.17762       42.62773       25.94661
C         24.52029       41.68045       25.14607
C         25.53429       42.29095       27.26260
C         24.21997       40.41560       25.65570
C         25.24089       41.02176       27.76768
C         24.58087       40.07962       26.96480
O         24.29072       38.85163       27.43848
H         22.97014       44.86972       24.85155
H         24.92069       45.06563       27.18171
H         26.59012       44.17265       25.50972
H         25.26235       44.02520       24.31022
H         24.23211       41.92310       24.13086
H         26.04701       43.00707       27.89331
H         23.70743       39.69613       25.03028
H         25.52772       40.77229       28.78144
H         24.52879       38.57764       28.33553
N         26.12257       47.13525       26.10955
C         26.76680       48.29098       25.48969
C         28.23500       47.94410       25.26684
O         28.97359       47.78734       26.22941
C         26.54562       49.55675       26.36962
C         25.03425       49.91778       26.34620
C         27.39940       50.74777       25.89581
C         24.64805       51.09365       27.24193
H         26.48336       46.81565       27.02202
H         26.32336       48.49807       24.49029
H         26.86291       49.31789       27.40923
H         24.44114       49.04164       26.68428
H         24.72711       50.15674       25.30328
H         28.47827       50.48972       25.89423
H         27.09261       51.06594       24.88418
H         27.29698       51.61046       26.58357
H         23.55118       51.25534       27.17390
H         24.91448       50.87511       28.29683
H         25.13951       52.03276       26.91746
N         28.70527       47.75656       23.99804
C         30.08730       47.38788       23.68660
C         31.03131       48.56502       23.88885
O         30.58148       49.63522       24.26029
C         30.17170       46.88728       22.22737
O         29.80943       47.90316       21.33338
H         28.03341       47.82968       23.21928
H         30.39383       46.53663       24.33384
H         29.48161       46.02227       22.10760
H         31.20341       46.54047       21.99950
H         29.90955       47.52018       20.42335
N         32.36256       48.44674       23.61882
C         33.28832       49.57665       23.65856
C         32.87806       50.63550       22.64930
O         32.75623       51.79541       23.01725
C         34.71352       49.11038       23.33850
H         32.72731       47.52431       23.33710
H         33.30791       50.01418       24.68214
H         35.41398       49.97265       23.38431
H         35.04178       48.35578       24.08393
H         34.76943       48.65984       22.32448
N         32.62275       50.28544       21.35501
C         32.23528       51.22896       20.30941
C         31.04233       52.06216       20.72207
O         31.12754       53.28114       20.66283
C         31.91053       50.47479       19.01340
H         32.69107       49.28599       21.10672
H         33.08798       51.91272       20.10024
H         32.79695       49.89690       18.67676
H         31.06519       49.76950       19.16788
H         31.63359       51.19128       18.21045
N         29.90621       51.47212       21.18229
C         28.74252       52.23360       21.61392
C         29.10499       53.22938       22.70319
O         28.91534       54.42072       22.49876
C         27.64436       51.29755       22.13694
C         26.95698       50.48749       21.03332
C         25.78984       49.75379       21.61594
O         25.53957       48.46888       21.31935
O         25.00901       50.35331       22.33387
H         29.88393       50.44455       21.24812
H         28.33796       52.80930       20.75069
H         26.86575       51.94494       22.60102
H         28.05295       50.61144       22.90992
H         27.64672       49.78898       20.51265
H         26.55366       51.20552       20.29011
N         29.62062       52.81616       23.88948
C         29.96494       53.73758       24.94771
H         30.73548       54.45280       24.59027
H         29.06039       54.29309       25.27433
H         30.37222       53.17770       25.81638
H         29.77157       51.81671       24.05001
Ca        23.55911       47.77597       22.15668
O         25.50297       44.76524       19.35872
H         24.56304       45.07030       19.40150
H         25.45139       43.86136       18.95874
O         24.28954       47.73156       18.69877
H         25.24266       47.51591       18.53873
H         23.91275       47.87852       17.79530
O         26.32173       45.18615       22.16156
H         26.90126       44.42738       22.42331
H         26.76438       45.98031       22.54955

Ca 1.0



