%chk=holoCaM-CaMKII.loop4.water0.frame366.chk
%nprocshared=20
%mem=10GB
%nosave
#b3lyp/svp scf=(tight,noincore,xqc) Test 
#IOP(5/87=12) Density=Current Pop=(MK,readradii) iop(6/33=2) iop(6/42=6)

holoCaM-CaMKII.loop4.water0.frame366 

   -3  1 
C         72.30143       66.99101       24.64201
C         73.10316       66.56534       23.44439
O         72.70309       65.65639       22.73383
H         71.37464       66.38903       24.74294
H         72.91268       66.87722       25.56186
H         72.01750       68.06126       24.53450
N         74.24872       67.22929       23.14730
C         75.06599       66.97464       21.96570
C         75.76289       65.61024       21.99266
O         76.48333       65.31935       22.93608
C         76.08200       68.12333       21.82927
C         77.03078       67.96058       20.68311
O         78.23009       67.97394       20.90537
O         76.60194       67.78695       19.41719
H         74.51017       68.01245       23.76847
H         74.40570       67.03248       21.08251
H         76.67446       68.21022       22.76724
H         75.52123       69.07365       21.68647
N         75.62661       64.75709       20.92931
C         76.28122       63.44921       20.78696
C         77.26378       63.43882       19.59643
O         77.95549       62.44550       19.42576
C         75.16932       62.34419       20.64375
C         74.32095       62.29076       21.94201
C         75.72520       60.94186       20.30398
C         73.09897       61.37030       21.85544
H         75.02832       65.06354       20.15401
H         76.89219       63.22803       21.68952
H         74.50691       62.62815       19.80069
H         73.93122       63.30441       22.16649
H         74.96050       61.96921       22.79301
H         76.43888       60.59730       21.08092
H         74.91647       60.19571       20.19248
H         76.21192       60.93089       19.30963
H         73.38438       60.30884       21.71660
H         72.52828       61.42902       22.80544
H         72.43668       61.68852       21.02227
N         77.43074       64.50438       18.76158
C         78.32579       64.48446       17.60155
C         79.62127       65.19844       17.93315
O         80.69513       64.63600       17.77560
C         77.65169       65.19369       16.40201
C         76.34726       64.56292       16.01199
O         75.21287       65.28921       16.04881
O         76.30931       63.40089       15.64227
H         76.91330       65.37168       18.94360
H         78.56872       63.44114       17.29833
H         78.33593       65.17337       15.52572
H         77.45731       66.26050       16.65219
N         79.56051       66.46548       18.40263
C         80.68266       67.32313       18.73141
C         80.57834       68.61323       17.94466
O         81.54724       69.01781       17.31924
H         78.62425       66.83907       18.55378
H         81.66220       66.82678       18.55544
H         80.61536       67.57051       19.81139
N         79.39387       69.29088       17.91193
C         79.14829       70.53053       17.19675
C         78.45918       71.56802       18.09616
O         78.17533       72.65372       17.61108
C         78.36754       70.22343       15.89253
C         77.01894       69.56859       16.03202
O         76.40438       69.25302       15.02590
O         76.47596       69.31703       17.23283
H         78.58529       68.88414       18.38440
H         80.11207       70.97134       16.86046
H         78.99748       69.53521       15.28608
H         78.23859       71.16229       15.31305
N         78.20211       71.33040       19.42360
C         77.63179       72.31549       20.33375
C         76.16350       72.63959       20.11683
O         75.66409       73.48964       20.84076
H         78.49515       70.44668       19.85768
H         78.23679       73.24530       20.27317
H         77.71575       71.92756       21.37294
N         75.40472       72.02269       19.16795
C         73.99514       72.33196       18.91623
C         73.13128       71.08941       19.08425
O         73.68134       70.02592       19.33731
C         73.87045       73.06476       17.55344
C         74.64252       72.46934       16.35435
C         74.05681       71.22068       15.75109
N         73.79430       71.17203       14.42369
O         73.86383       70.23124       16.43839
H         75.84127       71.30119       18.58305
H         73.61316       73.04532       19.68028
H         74.35185       74.05372       17.72548
H         72.80996       73.26578       17.29197
H         75.69651       72.28155       16.63477
H         74.68484       73.25075       15.56553
H         73.98858       71.98011       13.81382
H         73.42989       70.31146       13.99303
N         71.76260       71.16126       19.05335
C         70.90679       70.01275       19.36531
C         69.92789       69.73534       18.23015
O         69.05330       70.55260       17.97413
C         70.14187       70.25597       20.70177
C         69.33771       69.01363       21.12517
C         71.10481       70.62820       21.84068
H         71.31319       72.07445       18.88171
H         71.53615       69.10864       19.51649
H         69.43625       71.10684       20.56958
H         68.58602       68.74708       20.35974
H         70.01347       68.14570       21.28391
H         68.78915       69.21070       22.07085
H         71.64889       71.56642       21.60401
H         70.53614       70.80530       22.77899
H         71.84262       69.81607       22.01512
N         70.01410       68.57674       17.51752
C         69.06011       68.18174       16.48013
C         67.74429       67.72789       17.11099
O         67.66434       67.64098       18.32774
C         69.62995       66.98345       15.68474
C         70.97734       67.26405       15.06564
N         71.12236       68.21060       14.11145
O         71.94920       66.61426       15.42309
H         70.80262       67.95011       17.71828
H         68.89884       69.03486       15.78523
H         68.93122       66.67586       14.87801
H         69.73764       66.13283       16.38680
H         70.31542       68.76029       13.78478
H         72.04614       68.38311       13.68858
N         66.67582       67.36971       16.33865
C         65.47924       66.74750       16.90574
C         65.80540       65.34618       17.39595
O         65.30045       64.95395       18.43710
C         64.32339       66.67649       15.88559
C         63.07338       66.06457       16.50027
C         62.45178       66.65717       17.61791
C         62.52452       64.88541       15.96695
C         61.31542       66.07627       18.19115
C         61.38478       64.30939       16.53973
C         60.77793       64.90231       17.65593
O         59.68207       64.35505       18.22082
H         66.72914       67.50884       15.31804
H         65.11575       67.37466       17.74924
H         64.65149       66.08629       15.00210
H         64.07888       67.70398       15.54020
H         62.84571       67.56558       18.05436
H         62.97972       64.40713       15.10948
H         60.85234       66.53875       19.05456
H         60.97587       63.40031       16.11705
H         59.27757       63.54340       17.88224
N         66.63064       64.52507       16.67968
C         66.97927       63.17320       17.11766
C         67.75414       63.14584       18.43571
O         67.98123       62.05444       18.93974
C         67.77517       62.42441       16.01682
C         69.18782       62.98990       15.78407
C         69.87637       62.30065       14.64354
O         70.25033       62.94433       13.67581
O         70.10171       60.97385       14.68772
H         67.00088       64.87103       15.78227
H         66.02324       62.62240       17.26194
H         67.19148       62.47476       15.07169
H         67.87161       61.35226       16.29888
H         69.80260       62.84249       16.69506
H         69.12990       64.07229       15.56163
N         68.20476       64.28692       19.04204
C         68.96696       64.29410       20.28554
C         68.19823       64.97675       21.41403
O         68.68633       64.96638       22.53547
C         70.31874       65.00088       20.05937
C         71.06045       64.44882       18.83296
C         72.38204       65.11935       18.64614
O         73.39197       64.44814       18.54077
O         72.46854       66.46055       18.60779
H         68.03850       65.19763       18.60135
H         69.16682       63.25035       20.61198
H         70.94384       64.88844       20.97041
H         70.13687       66.08578       19.88650
H         70.45813       64.65518       17.93138
H         71.20585       63.35031       18.92713
N         66.99116       65.57979       21.20075
C         66.18921       66.19547       22.23518
H         65.19474       65.69945       22.25957
H         66.65090       66.10971       23.23903
H         66.04074       67.26894       21.99342
H         66.59499       65.61967       20.26042
Ca        74.50822       67.39265       18.68714

Ca 1.0



