%chk=holoCaM.loop3.water2.frame276.chk
%nprocshared=20
%mem=10GB
%nosave
#b3lyp/svp scf=(tight,noincore,xqc) Test 
#IOP(5/87=12) Density=Current Pop=(MK,readradii) iop(6/33=2) iop(6/42=6)

holoCaM.loop3.water2.frame276 

   0  1 
C         46.70504       -7.53911       64.83881
C         47.42524       -7.99382       63.60744
O         48.62657       -8.21823       63.66559
H         45.88803       -8.25206       65.07844
H         47.40030       -7.48920       65.70407
H         46.27520       -6.53166       64.66264
N         46.73736       -8.18464       62.44780
C         47.38782       -8.65578       61.23491
C         48.24343       -7.53765       60.65452
O         47.69471       -6.53249       60.22280
C         46.32727       -9.15416       60.23377
C         46.90548       -9.84991       59.03851
O         46.15606      -10.33473       58.21490
O         48.23086       -9.98528       58.87498
H         45.71509       -8.04044       62.45337
H         48.00578       -9.53995       61.50970
H         45.68037       -8.31169       59.90477
H         45.68435       -9.89776       60.74946
N         49.60411       -7.61988       60.68093
C         50.47422       -6.51938       60.25718
C         50.59745       -6.39660       58.74344
O         51.09343       -5.37930       58.27995
C         51.84701       -6.63713       60.94783
C         52.68410       -7.82955       60.45239
C         53.80525       -8.15238       61.44891
C         54.66249       -9.35377       61.01858
N         55.50908       -9.04310       59.86813
H         50.01588       -8.43955       61.14603
H         50.01886       -5.58116       60.64782
H         51.63353       -6.74687       62.03456
H         52.44102       -5.70599       60.81578
H         53.07172       -7.59608       59.43862
H         52.05861       -8.73584       60.37651
H         53.31790       -8.41990       62.41372
H         54.45427       -7.26799       61.62370
H         54.01775      -10.22865       60.78505
H         55.31689       -9.63382       61.87317
H         54.93194       -8.81498       59.02874
H         56.13858       -8.24061       60.09986
H         56.09774       -9.87882       59.64919
N         50.17089       -7.39267       57.91546
C         50.15689       -7.30475       56.46029
C         48.72029       -7.34957       55.92741
O         48.54663       -7.25562       54.72027
C         51.09090       -8.37633       55.85062
C         50.77162       -9.78411       56.25924
O         49.70419      -10.28495       55.96107
O         51.68163      -10.51149       56.93471
H         49.81578       -8.26093       58.33049
H         50.56351       -6.32553       56.12462
H         52.12904       -8.15387       56.18211
H         51.07301       -8.30775       54.74095
N         47.63866       -7.39800       56.76915
C         46.25968       -7.23364       56.33143
C         45.69605       -8.34337       55.46901
O         44.58177       -8.17193       54.99459
H         47.78008       -7.43956       57.78440
H         46.19534       -6.27722       55.76845
H         45.60271       -7.14118       57.22392
N         46.38000       -9.48963       55.19423
C         45.89121      -10.47971       54.23392
C         44.61212      -11.21204       54.65226
O         44.10516      -11.97893       53.84648
C         47.02483      -11.46529       53.85926
C         47.40496      -12.46838       54.92614
N         47.46055      -13.78633       54.62497
O         47.70279      -12.09706       56.05031
H         47.31387       -9.61340       55.60351
H         45.66661       -9.91882       53.29986
H         47.92550      -10.86569       53.60352
H         46.73132      -12.01508       52.93961
H         47.23675      -14.12485       53.67796
H         47.75378      -14.47535       55.33120
N         44.04960      -11.05632       55.88666
C         42.85946      -11.76488       56.33604
C         43.19081      -12.82022       57.37264
O         42.26733      -13.43321       57.89106
H         44.49158      -10.43822       56.57236
H         42.34844      -12.28389       55.49776
H         42.14816      -11.02151       56.75673
N         44.48201      -13.13712       57.67554
C         44.87614      -14.21306       58.56929
C         45.78318      -13.68983       59.65633
O         46.78793      -13.05694       59.35888
C         45.61605      -15.29184       57.75649
C         44.66334      -16.05591       56.86896
C         44.73916      -15.97480       55.47002
C         43.68607      -16.88012       57.45328
C         43.85067      -16.70068       54.67047
C         42.80351      -17.60905       56.65476
C         42.88244      -17.52136       55.25855
O         42.03749      -18.22138       54.47566
H         45.25058      -12.64113       57.20290
H         43.99656      -14.69083       59.05175
H         46.09882      -16.03137       58.43288
H         46.42255      -14.80347       57.17160
H         45.47577      -15.34994       54.99423
H         43.61462      -16.96694       58.53042
H         43.91697      -16.62684       53.59229
H         42.06190      -18.24294       57.12380
H         41.35937      -18.80446       54.84600
N         45.52562      -14.01590       60.95081
C         46.41211      -13.69979       62.05674
C         47.15328      -14.97922       62.37837
O         46.50550      -15.98735       62.63335
C         45.60101      -13.19922       63.28641
C         44.70313      -11.99199       62.91852
C         46.55772      -12.83820       64.44427
C         43.68783      -11.65050       64.01200
H         44.71978      -14.62924       61.15309
H         47.13706      -12.90795       61.76763
H         44.93594      -14.03163       63.60849
H         44.10383      -12.23512       62.01561
H         45.33009      -11.10465       62.69193
H         47.19022      -13.70539       64.72387
H         47.22546      -11.99920       64.14825
H         46.00239      -12.54469       65.35623
H         44.17951      -11.33697       64.95329
H         43.04197      -10.81538       63.66916
H         43.03998      -12.53158       64.21328
N         48.51259      -15.01549       62.39117
C         49.26458      -16.22734       62.67837
C         49.78635      -16.17990       64.09281
O         49.60176      -15.17925       64.76665
C         50.39400      -16.40705       61.64525
O         51.31900      -15.35187       61.71728
H         49.03435      -14.13916       62.25905
H         48.59968      -17.11602       62.62068
H         49.96300      -16.48622       60.61961
H         50.94039      -17.35589       61.82600
H         51.09393      -14.71025       60.99390
N         50.41136      -17.25727       64.63298
C         50.93985      -17.26477       65.99112
C         52.03976      -16.22960       66.12913
O         52.00648      -15.44236       67.06348
C         51.46992      -18.65626       66.34230
H         50.50884      -18.10667       64.05408
H         50.12154      -17.04604       66.71514
H         52.29184      -18.95729       65.66004
H         51.83847      -18.66803       67.39028
H         50.64419      -19.39667       66.25961
N         53.02141      -16.14955       65.18573
C         54.10309      -15.16940       65.21040
C         53.57641      -13.74883       65.32246
O         54.00229      -13.04319       66.22672
C         54.96494      -15.31071       63.95085
H         52.97862      -16.80830       64.39242
H         54.75662      -15.37577       66.08776
H         55.80956      -14.59001       63.98108
H         55.38477      -16.33806       63.89369
H         54.36145      -15.12223       63.03696
N         52.62054      -13.27358       64.47101
C         52.05004      -11.93019       64.58657
C         51.51222      -11.69134       65.98828
O         51.91248      -10.71774       66.61122
C         50.93177      -11.68921       63.54218
C         51.48991      -11.59469       62.11294
C         50.42201      -11.15217       61.11290
O         50.99734      -10.93911       59.85595
O         49.43793      -12.12923       60.95420
H         52.25894      -13.90873       63.74432
H         52.84613      -11.17252       64.40564
H         50.45842      -10.70740       63.76732
H         50.14788      -12.47393       63.61756
H         51.95638      -12.54842       61.78998
H         52.26610      -10.80499       62.11614
N         50.63855      -12.56136       66.56082
C         50.11887      -12.41602       67.90454
H         49.01009      -12.40745       67.86905
H         50.45151      -13.27878       68.52016
H         50.46508      -11.48229       68.39447
H         50.35038      -13.38940       66.03460
Ca        49.71370      -12.41984       58.71925
O         49.42405      -14.96735       57.37488
H         50.26997      -15.45865       57.52436
H         48.83612      -15.24927       58.12000
O         52.42861      -13.27474       58.12168
H         52.51728      -14.25311       58.24207
H         53.01581      -12.88189       58.81523

Ca 1.0



