%chk=holoCaM.loop4.water3.frame144.chk
%nprocshared=20
%mem=10GB
%nosave
#b3lyp/svp scf=(tight,noincore,xqc) Test 
#IOP(5/87=12) Density=Current Pop=(MK,readradii) iop(6/33=2) iop(6/42=6)

holoCaM.loop4.water3.frame144 

   -3  1 
C         10.53786      105.48352       -5.03485
C         10.58559      105.92872       -3.60339
O         11.30360      105.31297       -2.82992
H         11.56692      105.52221       -5.45508
H         10.16234      104.44190       -5.09725
H          9.89049      106.14449       -5.64758
N          9.85853      107.00318       -3.17679
C          9.98290      107.56230       -1.83178
C          8.93790      108.64876       -1.60529
O          8.90147      109.61742       -2.35179
C         11.40972      108.12377       -1.66923
C         11.65668      108.88665       -0.40704
O         11.50014      108.35790        0.81257
O         12.04062      110.04187       -0.48062
H          9.22524      107.46311       -3.84972
H          9.81718      106.75940       -1.08156
H         11.61761      108.80903       -2.52018
H         12.14956      107.30204       -1.71287
N          8.05720      108.53443       -0.56729
C          6.99333      109.49675       -0.27446
C          7.16823      110.16206        1.09594
O          6.35463      111.01477        1.42524
C          5.59890      108.78541       -0.35885
C          5.42506      107.71047        0.75571
C          5.39820      108.18659       -1.76334
C          4.06960      107.00477        0.76126
H          8.14057      107.70879        0.04037
H          7.00862      110.31542       -1.02764
H          4.81020      109.55686       -0.21062
H          5.54145      108.19596        1.74820
H          6.19445      106.92625        0.66184
H          4.37617      107.77284       -1.87999
H          5.51977      108.97513       -2.53519
H          6.13234      107.37578       -1.95839
H          3.24435      107.73935        0.86135
H          3.92849      106.39991       -0.15769
H          4.03233      106.30593        1.62437
N          8.15115      109.78252        1.96896
C          8.22981      110.25821        3.35219
C          9.64121      110.62112        3.82162
O          9.75929      111.07758        4.95136
C          7.58984      109.21007        4.30595
C          8.13084      107.79571        4.24441
O          9.04152      107.42568        3.33224
O          7.68450      106.95033        5.00082
H          8.79000      109.03667        1.68199
H          7.62628      111.18702        3.46450
H          6.50623      109.14312        4.06952
H          7.67795      109.58229        5.35006
N         10.75498      110.45535        3.05026
C         12.09817      110.79227        3.50996
C         12.59231      109.98695        4.70897
O         13.64855      110.33353        5.21883
H         10.65612      110.12401        2.08843
H         12.10259      111.86922        3.78753
H         12.82498      110.65784        2.67938
N         11.89381      108.93918        5.24350
C         12.27149      108.30283        6.50974
C         13.63091      107.60969        6.50215
O         14.15568      107.35450        7.57700
C         11.17698      107.32233        6.98919
C         11.08099      106.07525        6.14843
O         10.84903      106.14262        4.95393
O         11.25482      104.86894        6.71943
H         11.01817      108.64697        4.79244
H         12.32045      109.12620        7.25662
H         10.19503      107.84377        6.98646
H         11.39604      107.01818        8.03523
N         14.22528      107.21498        5.34423
C         15.51718      106.54966        5.27681
C         15.40792      105.11160        4.81171
O         16.44606      104.50623        4.58582
H         13.72838      107.36433        4.46188
H         16.03601      106.54391        6.25911
H         16.15307      107.12048        4.56561
N         14.20237      104.48105        4.68414
C         14.05662      103.09512        4.24937
C         13.15250      103.02253        3.03437
O         12.59123      104.03440        2.63606
C         13.41846      102.24956        5.37577
C         14.24935      102.22628        6.66441
C         13.62034      101.31223        7.68868
N         12.38140      101.55759        8.17798
O         14.23968      100.33457        8.08092
H         13.33996      104.98786        4.92137
H         15.04350      102.65788        3.98162
H         13.30818      101.19977        5.02773
H         12.40316      102.64569        5.59592
H         14.33396      103.24903        7.09002
H         15.27080      101.85728        6.42473
H         11.84064      102.37750        7.86886
H         11.95895      100.92331        8.87249
N         12.93210      101.82368        2.42330
C         11.94989      101.63266        1.36625
C         10.90728      100.64909        1.87045
O         11.26363       99.55556        2.28856
C         12.61780      101.21473        0.02464
C         13.32129       99.84902        0.05976
C         11.58448      101.23850       -1.11467
H         13.44706      100.99582        2.75941
H         11.44414      102.59682        1.14948
H         13.38431      101.98461       -0.21650
H         14.10759       99.82690        0.84059
H         12.59826       99.02695        0.23982
H         13.81067       99.65610       -0.91928
H         11.12334      102.24650       -1.19242
H         12.07050      101.01577       -2.08782
H         10.78286      100.49167       -0.93965
N          9.58775      100.98133        1.85848
C          8.53148      100.08512        2.31727
C          7.97607       99.33160        1.12218
O          8.40697       99.59461        0.01275
C          7.46245      100.94423        3.03547
C          6.33895      100.17192        3.67672
N          6.58035       99.31052        4.69029
O          5.19197      100.34519        3.29537
H          9.31076      101.87399        1.42300
H          8.95101       99.33555        3.02376
H          7.04146      101.66371        2.29623
H          7.95438      101.53030        3.83972
H          7.53700       99.16483        5.04215
H          5.80277       98.79903        5.13358
N          7.05237       98.34274        1.26404
C          6.48802       97.63931        0.11712
C          5.70432       98.59376       -0.77796
O          5.91688       98.57019       -1.98257
C          5.63486       96.40939        0.50738
C          4.36404       96.70438        1.26357
C          3.13995       96.74396        0.57529
C          4.37491       96.90806        2.65381
C          1.95255       97.00574        1.26052
C          3.18516       97.16450        3.33833
C          1.97170       97.21842        2.64589
O          0.83248       97.46841        3.32071
H          6.77028       98.07409        2.21075
H          7.32714       97.20609       -0.47518
H          6.23912       95.66443        1.07017
H          5.36602       95.90868       -0.45023
H          3.10593       96.58111       -0.49520
H          5.29412       96.85142        3.21903
H          1.01959       97.04028        0.71299
H          3.20784       97.31601        4.40999
H         -0.02653       97.51259        2.87739
N          4.80440       99.48430       -0.25451
C          4.00445      100.40253       -1.07576
C          4.82771      101.39569       -1.90257
O          4.23862      102.11512       -2.69733
C          2.97978      101.17125       -0.20601
C          3.61808      102.22982        0.71303
C          2.57289      102.89681        1.55925
O          1.85289      102.17339        2.43785
O          2.37544      104.09739        1.46208
H          4.66034       99.47986        0.76602
H          3.42374       99.76887       -1.78205
H          2.40639      100.43270        0.39720
H          2.25877      101.69196       -0.87482
H          4.12813      102.99997        0.09373
H          4.37281      101.76995        1.37797
N          6.18162      101.48006       -1.78485
C          7.02927      102.34818       -2.58703
C          7.72813      101.48537       -3.61945
O          7.57104      101.73928       -4.80525
C          8.04551      103.06650       -1.67670
C          7.36381      103.98735       -0.65200
C          8.34694      104.57162        0.32332
O          9.65870      104.28215        0.24560
O          7.94936      105.29569        1.21936
H          6.66294      100.87052       -1.11956
H          6.43029      103.11347       -3.13055
H          8.74711      103.66911       -2.29508
H          8.63377      102.29881       -1.12814
H          6.62163      103.40891       -0.06334
H          6.83890      104.81062       -1.18446
N          8.47178      100.40982       -3.23640
C          9.09159       99.48022       -4.15455
H         10.18311       99.44456       -3.96014
H          8.66566       98.46815       -3.98068
H          8.91953       99.75422       -5.21523
H          8.58486      100.20879       -2.23957
Ca        10.54396      106.64548        1.86179
O          9.12758      103.97076        3.60321
H          9.80834      103.73748        4.28263
H          8.27333      103.99367        4.10363
O         12.83530      105.43208        0.09981
H         13.44183      104.71126       -0.20123
H         11.95765      105.19307       -0.28663
O         13.77810      107.43239        1.99232
H         14.64891      107.88497        1.87746
H         13.21969      108.10352        2.45870

Ca 1.0



