%chk=holoCaM-CaMKII.loop4.water2.frame281.chk
%nprocshared=20
%mem=10GB
%nosave
#b3lyp/svp scf=(tight,noincore,xqc) Test 
#IOP(5/87=12) Density=Current Pop=(MK,readradii) iop(6/33=2) iop(6/42=6)

holoCaM-CaMKII.loop4.water2.frame281 

   -3  1 
C         40.85910       30.78097       90.86290
C         40.12394       29.79166       91.71751
O         39.00234       30.07259       92.11234
H         41.86455       30.40401       90.57914
H         40.27952       30.97425       89.93643
H         40.98516       31.73111       91.42274
N         40.69633       28.59929       92.03991
C         40.03459       27.59703       92.86580
C         39.78066       28.14829       94.26375
O         40.72862       28.42509       94.98580
C         40.90149       26.32392       92.89627
C         40.37596       25.26730       93.80857
O         41.16855       24.80661       94.78582
O         39.25508       24.81197       93.66983
H         41.63617       28.39386       91.66545
H         39.06419       27.33270       92.38703
H         41.93001       26.58253       93.23164
H         40.96959       25.90915       91.86779
N         38.50197       28.37113       94.68383
C         38.17185       28.97121       95.97355
C         38.22946       27.89856       97.06015
O         39.02212       28.01712       97.98325
C         36.76590       29.67179       95.92063
C         36.71874       30.73688       94.78507
C         36.42379       30.30892       97.28208
C         35.34929       31.39842       94.59933
H         37.74065       28.18010       94.01891
H         38.90896       29.77773       96.19297
H         35.98851       28.91211       95.70302
H         36.95261       30.25461       93.81524
H         37.48013       31.52581       94.96700
H         37.15364       31.10683       97.53475
H         35.40307       30.74147       97.27679
H         36.42952       29.54667       98.08792
H         34.56924       30.63163       94.41441
H         35.06289       32.00504       95.48081
H         35.38616       32.08079       93.72312
N         37.36513       26.84310       97.02054
C         37.23810       25.81581       98.06310
C         38.42036       24.85071       98.18765
O         38.34962       23.98193       99.04698
C         35.91749       25.02739       97.85931
C         35.80750       24.33427       96.52722
O         36.83100       24.36814       95.65512
O         34.75180       23.81668       96.20157
H         36.69328       26.82739       96.24011
H         37.12852       26.33311       99.04229
H         35.08633       25.76562       97.91520
H         35.76573       24.29236       98.67869
N         39.54529       24.93949       97.42157
C         40.69661       24.06674       97.62525
C         40.54538       22.65609       97.07303
O         41.49164       21.89540       97.22198
H         39.63967       25.70234       96.73894
H         40.94286       24.03123       98.70914
H         41.58068       24.51455       97.12957
N         39.42113       22.21669       96.43119
C         39.28599       20.83967       95.94789
C         40.24205       20.48258       94.80413
O         40.37754       19.30061       94.52124
C         37.81567       20.51088       95.59227
C         37.21783       21.31701       94.47063
O         37.87238       22.14847       93.86634
O         35.92653       21.12623       94.14186
H         38.62088       22.85198       96.34162
H         39.54338       20.17763       96.80474
H         37.19715       20.69081       96.49811
H         37.73075       19.43456       95.32945
N         40.92885       21.43115       94.10204
C         41.93823       21.12637       93.09406
C         41.54325       21.53302       91.68781
O         42.40547       21.49372       90.82065
H         40.75347       22.42327       94.29578
H         42.18975       20.04444       93.06604
H         42.86406       21.66954       93.38328
N         40.25964       21.85716       91.36074
C         39.82189       22.18716       90.00433
C         39.10090       23.52049       89.98703
O         38.90717       24.10551       91.04377
C         38.88160       21.07631       89.49843
C         39.62713       19.74534       89.32171
C         38.69675       18.65549       88.86142
N         37.69104       18.22457       89.65846
O         38.86103       18.14480       87.76362
H         39.53696       21.81533       92.09040
H         40.68883       22.26996       89.31204
H         38.45330       21.35561       88.51190
H         38.04489       20.95963       90.21903
H         40.10089       19.42226       90.27285
H         40.42864       19.89557       88.56451
H         37.54956       18.62937       90.59553
H         37.06029       17.47249       89.34419
N         38.68192       24.07430       88.80884
C         37.97781       25.34999       88.75030
C         36.62930       25.15004       88.07077
O         36.58738       24.92900       86.86757
C         38.83588       26.42007       88.01345
C         38.17745       27.80743       88.08668
C         40.25311       26.51233       88.60240
H         38.88561       23.58705       87.92214
H         37.80324       25.72521       89.78307
H         38.94226       26.12823       86.94473
H         38.08555       28.13889       89.14398
H         38.78853       28.55467       87.53698
H         37.17105       27.79233       87.62660
H         40.78400       25.54196       88.50238
H         40.84834       27.27071       88.04959
H         40.21755       26.79582       89.67455
N         35.47864       25.19698       88.79871
C         34.13773       25.09610       88.21976
C         33.82757       26.36991       87.43116
O         34.64894       27.26862       87.43625
C         33.12244       24.89301       89.37739
C         31.71268       24.58345       88.93813
N         31.43741       23.47181       88.21849
O         30.80243       25.33275       89.25271
H         35.56628       25.29186       89.81606
H         34.10582       24.20289       87.55882
H         33.13078       25.79865       90.02501
H         33.45484       24.03237       89.99769
H         32.18356       22.81338       87.95458
H         30.46863       23.26511       87.93252
N         32.66957       26.53119       86.73012
C         32.31529       27.78252       86.05552
C         32.09737       28.90591       87.06071
O         32.67003       29.97186       86.87904
C         31.05217       27.59189       85.19413
C         30.63389       28.86692       84.48758
C         31.50288       29.52877       83.59838
C         29.35762       29.40608       84.71901
C         31.09967       30.70730       82.96036
C         28.95531       30.57941       84.07550
C         29.82562       31.23489       83.19387
O         29.44826       32.36741       82.56664
H         32.01628       25.73883       86.66686
H         33.13710       28.06502       85.36015
H         30.22534       27.22300       85.83930
H         31.25907       26.81382       84.42779
H         32.49305       29.14011       83.39837
H         28.67003       28.91708       85.39709
H         31.77761       31.21073       82.28180
H         27.96637       30.97738       84.26376
H         28.57271       32.75968       82.69609
N         31.29130       28.73459       88.15292
C         31.03608       29.78795       89.14550
C         32.29883       30.30021       89.84525
O         32.20028       31.25457       90.60372
C         29.99801       29.30674       90.18952
C         30.54310       28.22300       91.13939
C         29.45523       27.66547       92.01070
O         28.50452       27.08596       91.50922
O         29.53415       27.77807       93.35011
H         30.82569       27.82213       88.26442
H         30.58222       30.64214       88.59608
H         29.11451       28.92160       89.63378
H         29.65698       30.16656       90.80797
H         31.33875       28.66054       91.77985
H         30.98859       27.38993       90.56803
N         33.51520       29.73014       89.62127
C         34.77081       30.17909       90.19730
C         35.59585       30.86885       89.12116
O         36.12595       31.93949       89.38275
C         35.49731       28.97405       90.83029
C         34.60364       28.34215       91.90810
C         35.26589       27.22664       92.64407
O         35.39704       27.30087       93.85369
O         35.65736       26.10687       92.01521
H         33.58142       28.91515       89.00710
H         34.60003       30.92608       91.00559
H         36.44713       29.32527       91.28932
H         35.73907       28.21182       90.05633
H         33.67850       27.93734       91.44930
H         34.31810       29.12599       92.64003
N         35.66803       30.36896       87.85608
C         36.34699       31.04769       86.77674
H         37.43195       31.11423       86.99143
H         36.19902       30.48308       85.82950
H         35.91939       32.06436       86.64060
H         35.18202       29.50281       87.62141
Ca        36.43290       24.59816       93.46618
O         35.75096       22.14879       91.20844
H         34.76833       22.08953       91.10622
H         36.02184       21.23990       91.49261
O         33.31727       24.47884       93.29264
H         32.86803       25.18319       92.76170
H         33.73462       24.96936       94.04417

Ca 1.0



