%chk=holoCaM-CaMKII.loop2.water0.frame135.chk
%nprocshared=20
%mem=10GB
%nosave
#b3lyp/svp scf=(tight,noincore,xqc) Test 
#IOP(5/87=12) Density=Current Pop=(MK,readradii) iop(6/33=2) iop(6/42=6)

holoCaM-CaMKII.loop2.water0.frame135 

   -2  1 
C         21.62079       60.44857       66.31221
C         20.28046       60.28838       66.96344
O         19.37773       59.72773       66.35775
H         22.39285       59.93746       66.92508
H         21.62157       60.00899       65.29260
H         21.87133       61.52794       66.23917
N         20.08540       60.76217       68.22375
C         18.81828       60.64236       68.93251
C         17.73620       61.41186       68.17415
O         17.95632       62.57435       67.86280
C         18.98747       61.14778       70.38385
C         17.79145       60.76804       71.19472
O         17.07680       61.62890       71.66980
O         17.47222       59.46482       71.32715
H         20.88261       61.21428       68.69935
H         18.55972       59.56155       68.98751
H         19.15156       62.24849       70.38749
H         19.86656       60.65913       70.85643
N         16.55988       60.81451       67.81531
C         15.58333       61.42817       66.91294
C         14.28346       61.85292       67.58565
O         13.45569       62.43704       66.89926
C         15.28929       60.44452       65.77286
H         16.37007       59.86453       68.15700
H         16.00939       62.35425       66.47024
H         16.22968       60.17700       65.24630
H         14.83450       59.51274       66.17714
H         14.58725       60.88798       65.03510
N         14.03424       61.63267       68.90681
C         12.82837       62.10607       69.59222
C         13.22774       63.10734       70.68591
O         12.67690       64.19895       70.70882
C         11.95003       60.90259       70.02433
C         12.59367       60.00950       71.02699
O         12.71477       60.38916       72.16870
O         13.11363       58.82394       70.68177
H         14.73042       61.11133       69.45470
H         12.16962       62.66029       68.88656
H         11.74158       60.31024       69.10691
H         10.97358       61.24398       70.43175
N         14.27184       62.85188       71.53139
C         14.84729       63.81931       72.46774
C         15.02112       63.27295       73.88108
O         15.59950       63.96323       74.70775
H         14.75073       61.95001       71.44539
H         14.25991       64.76226       72.50090
H         15.86344       64.07401       72.09546
N         14.53662       62.05080       74.23303
C         14.61446       61.45658       75.56268
C         16.00550       60.94291       75.94946
O         16.13553       60.44678       77.06056
C         13.57472       60.30805       75.69207
C         13.78205       59.11573       74.78095
N         12.98140       58.03263       74.89948
O         14.65973       59.11859       73.93351
H         14.00337       61.54821       73.53683
H         14.30221       62.22931       76.29955
H         12.55906       60.71593       75.49136
H         13.58843       59.94676       76.74175
H         12.23321       58.00806       75.60726
H         13.11829       57.21139       74.29115
N         17.08942       61.02258       75.12188
C         18.41613       60.56484       75.52053
C         18.59325       59.05147       75.57115
O         19.66808       58.62626       75.96966
H         17.00219       61.48361       74.20832
H         18.66191       61.00943       76.51055
H         19.16471       60.94489       74.79284
N         17.62598       58.17941       75.15907
C         17.76937       56.72426       75.17566
C         17.66764       56.17051       73.75900
O         16.68407       56.41463       73.07373
C         16.70038       56.10004       76.09434
C         16.81432       54.56759       76.13561
O         16.87707       56.60786       77.39225
H         16.74388       58.55470       74.80607
H         18.75723       56.43789       75.60074
H         15.69225       56.37898       75.70570
H         15.98917       56.59543       77.83474
H         16.64205       54.13010       75.12908
H         17.82178       54.25916       76.48958
H         16.05030       54.14788       76.82222
N         18.67219       55.38841       73.27593
C         18.70962       54.81357       71.93331
C         17.56528       53.82649       71.70635
O         17.41067       52.88501       72.47051
C         20.09910       54.13784       71.67952
C         21.28241       55.14645       71.80294
C         20.16498       53.42470       70.31501
C         21.23550       56.33314       70.82940
H         19.46527       55.20093       73.90591
H         18.61265       55.62732       71.19158
H         20.25263       53.35050       72.45166
H         22.23510       54.59795       71.63837
H         21.33280       55.56047       72.82992
H         19.41618       52.60925       70.26222
H         19.98095       54.12813       69.48092
H         21.16207       52.95539       70.17420
H         21.24309       55.99394       69.77408
H         20.34431       56.96915       71.00619
H         22.12911       56.97150       70.98929
N         16.79719       53.94940       70.58316
C         15.77937       52.99740       70.14329
C         16.32132       52.21868       68.95035
O         17.45265       52.45032       68.56223
C         14.49874       53.76098       69.75373
C         13.91921       54.50485       70.92200
O         13.49257       53.83094       72.00689
O         13.81802       55.72076       70.88782
H         17.01062       54.71522       69.93499
H         15.55387       52.25749       70.94250
H         13.72505       53.06027       69.37546
H         14.74019       54.47668       68.93529
N         15.59489       51.23203       68.34861
C         16.15877       50.39838       67.28697
C         16.51752       51.20254       66.03517
O         17.67302       51.11231       65.63871
C         15.26347       49.16447       67.01084
C         15.90570       48.13370       66.10234
C         15.24724       47.70298       64.93625
C         17.14990       47.55860       66.43132
C         15.82019       46.71888       64.12187
C         17.72197       46.58400       65.60901
C         17.05664       46.16162       64.45717
H         14.65273       51.01838       68.70640
H         17.10220       49.97512       67.69339
H         14.27486       49.45948       66.61892
H         15.08102       48.65813       67.98310
H         14.28415       48.11504       64.66317
H         17.68178       47.85382       67.32543
H         15.30300       46.38272       63.23252
H         18.67893       46.15018       65.87049
H         17.49761       45.39887       63.82796
N         15.64879       52.02829       65.36146
C         16.02663       52.81683       64.18671
C         17.25810       53.68199       64.39870
O         17.93381       54.02121       63.43883
C         14.82295       53.75096       63.98145
C         13.67750       52.90283       64.47010
C         14.26844       52.27957       65.73127
H         16.17143       52.11886       63.33303
H         14.88362       54.61030       64.69181
H         14.72226       54.15881       62.95262
H         12.71841       53.44147       64.62654
H         13.51947       52.09608       63.71836
H         14.25450       52.98236       66.59402
H         13.67991       51.37689       65.95780
N         17.52273       54.16974       65.63815
C         18.59128       55.10929       65.94172
C         19.92733       54.39470       65.90707
O         20.81571       54.82350       65.18399
C         18.30700       55.77836       67.30476
C         16.93267       56.49115       67.25431
C         16.52086       57.13604       68.53263
O         15.40727       57.62861       68.60475
O         17.33737       57.16608       69.60127
H         16.89270       53.89105       66.40200
H         18.58619       55.93895       65.19899
H         19.10319       56.51935       67.53786
H         18.29960       55.00866       68.10072
H         16.12830       55.76508       67.02513
H         16.93550       57.26288       66.45509
N         20.12356       53.26276       66.63748
C         21.35705       52.50969       66.60402
H         22.19287       53.12748       66.99188
H         21.25926       51.60108       67.23762
H         21.57584       52.18694       65.56374
H         19.35903       52.89812       67.21598
Ca        15.33252       58.84223       71.03438

Ca 1.0



