%chk=holoCaM.loop4.water3.frame5.chk
%nprocshared=20
%mem=10GB
%nosave
#b3lyp/svp scf=(tight,noincore,xqc) Test 
#IOP(5/87=12) Density=Current Pop=(MK,readradii) iop(6/33=2) iop(6/42=6)

holoCaM.loop4.water3.frame5 

   -3  1 
C         62.07563       66.31774       49.58436
C         61.75308       66.55955       48.13836
O         61.37348       65.61283       47.46594
H         61.16668       65.91677       50.08687
H         62.89412       65.57696       49.68243
H         62.36197       67.25684       50.10153
N         61.80296       67.81990       47.61247
C         61.25153       68.14954       46.30327
C         62.16475       69.02686       45.45178
O         62.74120       69.98059       45.95397
C         59.90046       68.83257       46.55472
C         59.14791       69.21020       45.31168
O         58.79952       68.29630       44.37875
O         58.82789       70.37631       45.14806
H         62.08321       68.59928       48.22709
H         61.04589       67.22724       45.74421
H         60.06414       69.74148       47.17413
H         59.26005       68.13444       47.13241
N         62.23517       68.79787       44.10547
C         62.98684       69.60168       43.13981
C         62.02356       70.24044       42.13246
O         62.11212       71.44041       41.91427
C         64.02689       68.71391       42.37952
C         64.99696       68.02660       43.37279
C         64.81902       69.55457       41.35072
C         65.93670       67.01015       42.71001
H         61.69288       68.00805       43.73453
H         63.55399       70.41004       43.65493
H         63.47184       67.92379       41.82770
H         64.40093       67.47581       44.12475
H         65.59895       68.78837       43.91362
H         65.40700       70.34558       41.86428
H         65.51041       68.92555       40.75590
H         64.14257       70.03678       40.61589
H         65.35101       66.23479       42.17056
H         66.63785       67.49519       42.00217
H         66.54873       66.50815       43.48861
N         61.10645       69.48263       41.45723
C         60.29220       69.96071       40.33314
C         58.80406       70.13883       40.65184
O         58.05520       70.48942       39.74995
C         60.49731       69.00995       39.12742
C         60.02908       67.58757       39.33855
O         59.47097       67.19355       40.49693
O         60.16022       66.77386       38.43923
H         61.01995       68.49502       41.72229
H         60.64496       70.96631       40.01529
H         61.58096       68.98304       38.88227
H         59.95728       69.41912       38.24674
N         58.31275       69.98947       41.91151
C         56.92699       70.26834       42.28362
C         55.87685       69.32872       41.70647
O         54.70264       69.61831       41.88867
H         58.97896       69.77428       42.65289
H         56.69112       71.30579       41.95986
H         56.82429       70.23643       43.38905
N         56.19412       68.20789       40.99748
C         55.19024       67.38424       40.31450
C         54.16747       66.71304       41.23280
O         53.14448       66.27398       40.72629
C         55.87306       66.30565       39.44731
C         56.47903       65.21551       40.29335
O         57.35368       65.51963       41.26751
O         56.13512       64.05485       40.13680
H         57.18599       67.98169       40.87074
H         54.64621       68.07564       39.63269
H         56.66094       66.78227       38.82417
H         55.12647       65.85099       38.76014
N         54.40228       66.53238       42.56409
C         53.45308       65.90615       43.47651
C         53.96629       64.63030       44.12955
O         53.29397       64.16073       45.03744
H         55.29084       66.86154       42.95959
H         52.48874       65.66498       42.97762
H         53.23336       66.64523       44.27585
N         55.09540       63.97913       43.71279
C         55.58138       62.73462       44.32292
C         57.05597       62.83611       44.70262
O         57.66436       63.86791       44.45438
C         55.36516       61.55739       43.34730
C         53.87185       61.30981       43.07385
C         53.61767       60.05530       42.27122
N         52.34694       59.67939       42.00106
O         54.54633       59.36332       41.87794
H         55.60595       64.34212       42.89602
H         55.02055       62.50562       45.25567
H         55.76291       60.63026       43.80824
H         55.90974       61.73546       42.39348
H         53.43584       62.18037       42.53857
H         53.34802       61.19039       44.04724
H         51.55090       60.24398       42.33217
H         52.15754       58.81690       41.46929
N         57.70681       61.77328       45.27631
C         59.13118       61.77430       45.60136
C         59.85849       60.89509       44.59152
O         59.65361       59.68956       44.55499
C         59.38524       61.29650       47.06013
C         60.89056       61.22332       47.37921
C         58.70913       62.21800       48.08370
H         57.18804       60.89848       45.44281
H         59.53206       62.80765       45.51230
H         58.95600       60.27679       47.17725
H         61.40704       60.51034       46.70413
H         61.36417       62.22259       47.27207
H         61.04697       60.86387       48.41848
H         58.85534       61.82026       49.11064
H         59.16022       63.22933       48.04775
H         57.61778       62.29193       47.89561
N         60.70473       61.48272       43.70592
C         61.44160       60.79986       42.64281
C         62.62073       60.00236       43.19422
O         62.88379       60.04144       44.38751
C         61.85863       61.91196       41.63943
C         62.59363       61.58248       40.37038
N         63.61542       62.37466       39.96320
O         62.20836       60.67304       39.65245
H         60.76695       62.50969       43.74689
H         60.75243       60.10916       42.10850
H         62.41589       62.70670       42.17579
H         60.90420       62.33665       41.29638
H         63.89605       63.19981       40.51493
H         64.09120       62.20330       39.06608
N         63.37515       59.24441       42.34874
C         64.60621       58.54562       42.71417
C         65.65869       59.54765       43.15620
O         66.25913       59.36345       44.20377
C         65.14351       57.78700       41.47942
C         66.46063       57.10119       41.75249
C         66.53617       55.99968       42.62074
C         67.63194       57.57366       41.13723
C         67.76623       55.37706       42.86150
C         68.85942       56.95858       41.38807
C         68.93083       55.85483       42.24897
O         70.10991       55.24887       42.49403
H         63.06975       59.18093       41.36988
H         64.40789       57.80863       43.52491
H         65.27524       58.52334       40.65631
H         64.40290       57.03598       41.12863
H         65.64440       55.61832       43.10255
H         67.59805       58.42845       40.47281
H         67.81493       54.52301       43.52532
H         69.75307       57.34215       40.91235
H         70.93603       55.55164       42.09016
N         65.93021       60.63811       42.38258
C         66.92375       61.66121       42.71509
C         66.57481       62.44717       43.98268
O         67.34974       63.31887       44.35196
C         67.05345       62.66265       41.53904
C         67.55889       61.99665       40.24701
C         67.61968       62.99017       39.12275
O         68.68322       63.24082       38.57933
O         66.49507       63.59587       38.69470
H         65.39425       60.73861       41.50843
H         67.91036       61.17074       42.86636
H         67.77454       63.46668       41.80581
H         66.06462       63.13771       41.36260
H         66.89056       61.17137       39.92783
H         68.56975       61.57207       40.43326
N         65.42844       62.21908       44.68535
C         64.98980       63.00130       45.83044
C         64.89270       62.16089       47.09700
O         64.49152       62.69945       48.12022
C         63.61396       63.59673       45.48442
C         63.69342       64.45506       44.21526
C         62.37255       65.04602       43.83159
O         61.26710       64.80905       44.56104
O         62.30260       65.76935       42.85261
H         64.77715       61.49784       44.37427
H         65.69761       63.83287       46.04248
H         63.25742       64.22196       46.33014
H         62.88556       62.77185       45.31909
H         64.05929       63.85515       43.35703
H         64.41654       65.27018       44.40207
N         65.25466       60.84709       47.12440
C         65.17074       60.04513       48.32395
H         65.80681       60.48555       49.12050
H         64.11716       59.98991       48.66961
H         65.53074       59.01494       48.11278
H         65.61216       60.38794       46.28107
Ca        59.51575       66.17296       44.26991
O         59.78658       64.43904       41.21205
H         59.14611       63.74675       40.90645
H         60.38032       64.58382       40.43360
O         58.08591       65.19151       46.94874
H         59.00071       65.10724       46.58226
H         58.05830       66.09742       47.34206
O         56.62712       66.71965       45.03963
H         55.99164       66.08182       45.44788
H         56.21141       67.60795       45.17153

Ca 1.0



