%chk=holoCaM.loop2.water2.frame429.chk
%nprocshared=20
%mem=10GB
%nosave
#b3lyp/svp scf=(tight,noincore,xqc) Test 
#IOP(5/87=12) Density=Current Pop=(MK,readradii) iop(6/33=2) iop(6/42=6)

holoCaM.loop2.water2.frame429 

   -2  1 
C         79.11579       16.62093       53.41075
C         79.22293       18.11586       53.34365
O         80.32108       18.65046       53.29303
H         78.51939       16.25078       52.54931
H         80.11698       16.14415       53.38982
H         78.59812       16.33403       54.35135
N         78.08585       18.85561       53.33108
C         78.05646       20.31166       53.28391
C         78.63368       20.88896       54.56924
O         78.16484       20.50764       55.63335
C         76.58992       20.75175       53.11841
C         76.41217       22.21217       52.87806
O         75.28593       22.66483       52.84672
O         77.45933       23.02494       52.67095
H         77.18856       18.34338       53.34359
H         78.62287       20.66584       52.39776
H         76.02184       20.46469       54.02946
H         76.13805       20.23251       52.24446
N         79.62092       21.83529       54.55183
C         80.19283       22.40140       55.77433
C         79.78649       23.85373       56.00885
O         80.10673       24.37140       57.07002
C         81.71715       22.26040       55.73499
H         79.96644       22.18031       53.64310
H         79.82087       21.84145       56.65933
H         82.13571       22.83459       54.87965
H         82.17088       22.63987       56.67536
H         81.99717       21.19206       55.61657
N         79.07480       24.56989       55.09104
C         78.60409       25.93661       55.30139
C         77.07855       26.05207       55.15340
O         76.57103       27.16085       55.25012
C         79.39045       26.88947       54.37641
C         79.28458       26.56303       52.91762
O         80.38213       26.19046       52.23255
O         78.21801       26.65746       52.34037
H         78.86924       24.14707       54.18197
H         78.83550       26.27853       56.33424
H         80.46266       26.81867       54.66374
H         79.06967       27.94062       54.54220
N         76.27532       24.95323       54.99844
C         74.81533       25.00550       54.98834
C         74.17303       25.60290       53.74371
O         72.95233       25.67812       53.72254
H         76.69754       24.01587       54.99725
H         74.47269       25.56165       55.88846
H         74.42427       23.96879       55.07596
N         74.89570       26.05278       52.67852
C         74.28153       26.70355       51.51476
C         73.38902       25.77555       50.68115
O         72.56660       26.27647       49.92800
C         75.36893       27.40190       50.65208
C         76.30989       26.46811       49.83867
N         75.81726       26.25322       48.47990
O         76.47561       25.23576       50.48460
H         75.91698       25.99926       52.73568
H         73.64040       27.51450       51.93023
H         75.99228       28.00042       51.35056
H         74.89772       28.13538       49.96162
H         75.78126       27.17261       47.98336
H         74.85181       25.85841       48.49260
N         73.52251       24.41884       50.74527
C         72.68759       23.45284       50.04187
C         73.46349       22.54292       49.09563
O         72.87620       21.57513       48.63101
H         74.25263       24.03476       51.34386
H         71.86876       23.94197       49.47161
H         72.21642       22.81281       50.81869
N         74.74534       22.80977       48.70741
C         75.50495       22.00210       47.74556
C         76.93326       21.76812       48.23602
O         77.27909       22.24659       49.30636
C         75.51972       22.71960       46.37102
C         74.11904       22.76120       45.74868
O         76.01850       24.02358       46.51734
H         75.18282       23.67609       49.03946
H         75.03333       21.00385       47.60553
H         76.16831       22.14629       45.67196
H         76.24099       24.35507       45.60875
H         74.16489       23.24547       44.75058
H         73.73570       21.72666       45.61260
H         73.41102       23.33144       46.38432
N         77.82143       21.03230       47.49840
C         79.22261       20.82773       47.87447
C         80.16938       21.30122       46.76847
O         80.04001       20.88172       45.62663
C         79.50313       19.35571       48.30245
C         79.20277       18.30833       47.20200
C         78.73641       19.05787       49.60424
C         79.58869       16.88399       47.61197
H         77.49090       20.58849       46.62836
H         79.46475       21.43148       48.77417
H         80.58617       19.28936       48.54614
H         79.79768       18.54664       46.29822
H         78.12571       18.32454       46.93246
H         77.63895       19.08685       49.44013
H         79.01803       18.07665       50.03364
H         79.00433       19.81386       50.36707
H         78.97580       16.52535       48.46330
H         79.41121       16.19247       46.76266
H         80.66399       16.84040       47.88812
N         81.17890       22.16937       47.07011
C         82.20969       22.62715       46.13443
C         83.35586       21.60215       46.11533
O         83.22575       20.59704       46.78811
C         82.66623       24.02959       46.62029
C         83.43192       24.89451       45.65281
O         83.56484       24.58860       44.47979
O         83.89409       26.08636       46.07514
H         81.28110       22.45612       48.05244
H         81.76215       22.73093       45.12141
H         83.24658       23.90270       47.55950
H         81.76313       24.62824       46.86595
N         84.49437       21.75403       45.37743
C         85.57536       20.76468       45.34083
C         86.18314       20.51268       46.72767
O         86.21126       19.35185       47.10972
C         86.60944       21.14981       44.24847
C         87.71250       20.14127       43.99883
C         87.41592       18.80148       43.68373
C         89.05920       20.55160       44.01994
C         88.44419       17.89540       43.40151
C         90.08262       19.64410       43.72550
C         89.77551       18.31718       43.41747
H         84.59978       22.58261       44.78756
H         85.13216       19.80440       44.99610
H         87.04896       22.14319       44.44681
H         86.04939       21.24345       43.29291
H         86.39272       18.45379       43.64669
H         89.31988       21.57902       44.24122
H         88.20825       16.86705       43.15924
H         91.11459       19.97178       43.72703
H         90.56857       17.61741       43.18518
N         86.64772       21.50025       47.56503
C         87.15667       21.25450       48.91683
C         86.23953       20.37772       49.75668
O         86.69951       19.41095       50.34777
C         87.23141       22.66064       49.53546
C         87.56480       23.50772       48.33463
C         86.63962       22.92005       47.27287
H         88.17372       20.80823       48.84165
H         86.22260       22.99483       49.86968
H         87.92719       22.74938       50.39742
H         87.46384       24.60443       48.47971
H         88.61753       23.27870       48.05005
H         85.59951       23.29681       47.37168
H         87.05941       23.18740       46.28964
N         84.91077       20.66558       49.82064
C         83.91713       19.91038       50.58496
C         83.92451       18.45035       50.14346
O         84.14537       17.58285       50.97713
C         82.53010       20.60345       50.42001
C         82.55254       22.00318       51.09427
C         81.44352       22.94749       50.68885
O         81.73166       24.00119       50.14290
O         80.15101       22.69895       50.96124
H         84.58684       21.46778       49.25891
H         84.17592       19.93420       51.66787
H         81.71220       19.99993       50.87119
H         82.33014       20.70022       49.33344
H         83.49398       22.52489       50.83058
H         82.55581       21.87371       52.19793
N         83.75868       18.10809       48.83892
C         83.86040       16.74750       48.35804
H         84.86853       16.33942       48.58755
H         83.08093       16.11281       48.82593
H         83.72502       16.72896       47.25410
H         83.59384       18.84033       48.15079
Ca        78.59268       24.31707       50.48893
O         79.88930       26.99685       49.32359
H         79.05062       27.50976       49.20715
H         80.46025       27.57859       49.88508
O         79.16116       24.74064       47.46033
H         78.35416       24.18520       47.59083
H         78.82907       25.55998       47.01531

Ca 1.0



