%chk=holoCaM-CaMKII.loop2.water2.frame201.chk
%nprocshared=20
%mem=10GB
%nosave
#b3lyp/svp scf=(tight,noincore,xqc) Test 
#IOP(5/87=12) Density=Current Pop=(MK,readradii) iop(6/33=2) iop(6/42=6)

holoCaM-CaMKII.loop2.water2.frame201 

   -2  1 
C          5.60513       72.02404        8.23181
C          4.95556       73.13785        9.00479
O          3.88522       72.94915        9.56317
H          6.59791       71.79660        8.67833
H          4.98827       71.10163        8.25497
H          5.75477       72.33447        7.17614
N          5.58622       74.33771        9.09201
C          5.10095       75.46976        9.87583
C          3.78327       76.02058        9.33075
O          3.73428       76.35324        8.15460
C          6.17644       76.58170        9.84318
C          5.90708       77.70254       10.79949
O          6.65662       78.66415       10.83589
O          4.88027       77.63318       11.65871
H          6.49471       74.42679        8.60843
H          4.98252       75.13560       10.93051
H          6.25423       76.98434        8.80987
H          7.16283       76.15499       10.12712
N          2.69289       76.19113       10.14270
C          1.42123       76.75630        9.68116
C          1.03768       78.07119       10.37755
O          0.02967       78.64626        9.99105
C          0.31285       75.72051        9.89951
H          2.76727       75.91100       11.13059
H          1.47625       76.97710        8.59349
H          0.20561       75.49273       10.98296
H         -0.65988       76.09867        9.51807
H          0.55642       74.77978        9.36187
N          1.75604       78.59383       11.41455
C          1.39667       79.81124       12.14904
C          2.52880       80.84453       12.14713
O          2.26145       81.97493       11.76303
C          0.89097       79.46077       13.57627
C          1.62008       78.32319       14.22810
O          1.02381       77.27846       14.44166
O          2.93538       78.37018       14.46588
H          2.56981       78.07588       11.75328
H          0.52833       80.32318       11.67503
H         -0.16007       79.10962       13.46377
H          0.86388       80.36285       14.22379
N          3.79935       80.55418       12.55665
C          4.88275       81.53323       12.62278
C          5.49682       81.64915       14.01583
O          6.43739       82.41443       14.17216
H          4.03223       79.59290       12.81669
H          4.53539       82.54346       12.31502
H          5.67905       81.21962       11.91535
N          5.00958       80.94301       15.07733
C          5.50017       81.03822       16.45491
C          6.90360       80.45598       16.70630
O          7.32087       80.46068       17.85654
C          4.45997       80.39330       17.40771
C          4.23353       78.91188       17.22869
N          3.30695       78.28621       17.98584
O          4.86565       78.27258       16.40318
H          4.17841       80.36600       14.92204
H          5.52362       82.11371       16.73775
H          3.48517       80.90468       17.24360
H          4.76002       80.57460       18.46139
H          2.75256       78.80711       18.68006
H          3.13810       77.28020       17.87257
N          7.70689       79.98141       15.70935
C          9.06927       79.50444       15.93158
C          9.19192       78.09864       16.50335
O         10.32195       77.66000       16.66958
H          7.39881       80.05602       14.73511
H          9.61793       80.23382       16.56832
H          9.58802       79.47353       14.94985
N          8.11271       77.32554       16.81558
C          8.20851       75.96140       17.34210
C          7.42082       74.96901       16.48211
O          6.78458       75.36778       15.51723
C          7.69530       75.94774       18.81157
C          8.64692       76.72735       19.72272
O          6.41078       76.51127       18.92022
H          7.17414       77.72101       16.70096
H          9.26245       75.60404       17.34447
H          7.67835       74.91177       19.21319
H          5.81582       76.04121       18.28167
H          8.69778       77.79550       19.42559
H          8.29433       76.66796       20.77443
H          9.66787       76.28937       19.67592
N          7.38732       73.64786       16.82479
C          6.56711       72.63381       16.16648
C          5.39923       72.32153       17.08139
O          5.60241       72.02865       18.25328
C          7.40705       71.35962       15.82132
C          8.36470       71.67642       14.64222
C          6.49326       70.16019       15.46860
C          9.30269       70.52661       14.26032
H          7.90956       73.34663       17.66196
H          6.13746       73.01635       15.21516
H          7.99499       71.06491       16.71910
H          8.99592       72.55060       14.90734
H          7.76397       71.94145       13.74432
H          5.86306       70.38384       14.58279
H          7.08135       69.24102       15.27839
H          5.83246       69.90248       16.32255
H          9.94195       70.24616       15.12272
H          8.74448       69.63560       13.90778
H          9.95439       70.84893       13.42086
N          4.13484       72.32248       16.57258
C          2.93413       72.03779       17.34244
C          2.39305       70.68002       16.95403
O          2.97222       70.03474       16.09127
C          1.87972       73.13035       17.07358
C          2.36661       74.49501       17.46112
O          3.34626       74.97906       16.91671
O          1.70569       75.20123       18.39757
H          4.01097       72.48769       15.56357
H          3.16613       71.99884       18.43009
H          0.95582       72.90970       17.64768
H          1.61911       73.14140       15.99121
N          1.31936       70.14328       17.59385
C          0.82793       68.80281       17.30630
C          0.21454       68.69508       15.90744
O          0.61905       67.78524       15.20006
C         -0.08387       68.28573       18.43826
C         -0.44561       66.82547       18.27303
C         -1.79326       66.43129       18.24411
C          0.55668       65.83870       18.16741
C         -2.13135       65.08084       18.11020
C          0.21320       64.49287       18.02211
C         -1.12960       64.11341       17.99563
H          0.88806       70.67743       18.36598
H          1.71269       68.13047       17.33879
H         -0.99359       68.90581       18.53670
H          0.47606       68.37952       19.39469
H         -2.58264       67.16663       18.33458
H          1.60609       66.10003       18.19532
H         -3.17140       64.78382       18.09694
H          0.99022       63.74392       17.93438
H         -1.39287       63.06922       17.88995
N         -0.70734       69.58490       15.39628
C         -1.23625       69.52462       14.02698
C         -0.19822       69.57005       12.90534
O         -0.58767       69.48074       11.74771
C         -2.10068       70.78818       13.91619
C         -2.57829       70.97233       15.33312
C         -1.30819       70.67901       16.12781
H         -1.84483       68.59639       13.95071
H         -1.44557       71.66598       13.70113
H         -2.89157       70.74276       13.13644
H         -3.04378       71.95681       15.55125
H         -3.32109       70.16779       15.54002
H         -0.60517       71.54001       16.12429
H         -1.61593       70.42512       17.15688
N          1.12894       69.71529       13.16650
C          2.18291       69.77354       12.17006
C          2.95513       68.47133       12.21982
O          3.08360       67.81819       11.19520
C          3.11438       70.95887       12.48653
C          2.35180       72.28629       12.57098
C          3.22559       73.41324       13.02610
O          2.65067       74.58930       13.29070
O          4.42379       73.27237       13.20533
H          1.44025       69.81088       14.13530
H          1.76526       69.90757       11.14632
H          3.91873       71.02895       11.72241
H          3.58948       70.78520       13.47731
H          1.54370       72.19670       13.32846
H          1.88965       72.54136       11.59303
N          3.45570       68.01187       13.40339
C          4.15151       66.75512       13.56032
H          5.14848       66.94564       14.00901
H          3.56940       66.10645       14.25002
H          4.28292       66.22195       12.59748
H          3.31370       68.55849       14.25816
Ca         3.75187       76.32982       14.15171
O          6.99132       74.86009       12.68799
H          6.83531       73.88690       12.60848
H          7.97161       74.94468       12.79143
O          6.78583       77.60623       13.90398
H          6.42810       78.45204       13.53811
H          7.75660       77.63781       13.71240

Ca 1.0



