%chk=holoCaM.loop2.water2.frame187.chk
%nprocshared=20
%mem=10GB
%nosave
#b3lyp/svp scf=(tight,noincore,xqc) Test 
#IOP(5/87=12) Density=Current Pop=(MK,readradii) iop(6/33=2) iop(6/42=6)

holoCaM.loop2.water2.frame187 

   -2  1 
C         45.52419       79.50151       88.46939
C         46.82940       80.24388       88.38239
O         47.08264       80.92552       87.40112
H         44.89383       79.67913       87.57368
H         45.71586       78.41250       88.57165
H         44.96492       79.84604       89.36748
N         47.69493       80.17334       89.42487
C         48.94793       80.91628       89.51810
C         49.99883       80.44875       88.51416
O         50.30628       79.26561       88.47984
C         49.48308       80.76614       90.95343
C         50.74575       81.52919       91.16986
O         51.85079       80.88275       91.58632
O         50.77523       82.73271       90.97372
H         47.40289       79.60163       90.23443
H         48.73548       81.99759       89.36407
H         49.66090       79.69332       91.18402
H         48.72002       81.15689       91.66170
N         50.64309       81.35867       87.72006
C         51.71799       81.02445       86.78476
C         53.04088       81.73596       87.10914
O         53.98696       81.54671       86.35607
C         51.27447       81.41438       85.36890
H         50.36764       82.34859       87.79118
H         51.91439       79.93029       86.78971
H         50.33044       80.89365       85.10370
H         51.11160       82.51108       85.30016
H         52.04812       81.12999       84.62308
N         53.19413       82.57011       88.18373
C         54.39692       83.39564       88.38633
C         54.64383       83.83704       89.84033
O         55.58793       84.58346       90.06115
C         54.33776       84.61749       87.43884
C         53.11936       85.47238       87.63064
O         52.19886       85.16634       88.55904
O         52.92351       86.41867       86.88525
H         52.37839       82.72970       88.78331
H         55.30013       82.80938       88.10724
H         54.31573       84.25014       86.39031
H         55.24653       85.24529       87.55734
N         53.89624       83.38268       90.88622
C         54.14858       83.70902       92.28419
C         53.86207       85.14636       92.69412
O         54.09526       85.45442       93.85435
H         53.17089       82.69240       90.70908
H         55.20599       83.46044       92.52017
H         53.50372       83.06226       92.91905
N         53.37521       86.08504       91.83146
C         53.19165       87.49257       92.20367
C         52.03539       87.76669       93.18451
O         51.84705       88.92360       93.53574
C         53.05934       88.36053       90.93092
C         51.81396       88.12176       90.12256
N         51.61165       88.81861       88.98233
O         50.98385       87.30668       90.48856
H         53.21228       85.81449       90.85358
H         54.13502       87.83555       92.68431
H         53.94155       88.16549       90.28153
H         53.08086       89.43337       91.21864
H         52.30784       89.50301       88.65374
H         50.75862       88.67486       88.42599
N         51.24544       86.77639       93.69495
C         50.21263       87.00369       94.70227
C         48.89034       87.56896       94.19788
O         47.99756       87.71048       95.02005
H         51.44697       85.79979       93.45005
H         50.62182       87.63754       95.52002
H         49.95547       86.02040       95.15188
N         48.66458       87.88742       92.89019
C         47.37255       88.36150       92.38117
C         46.85523       87.45632       91.26349
O         47.54331       86.53836       90.84724
C         47.51548       89.82030       91.86522
C         47.76749       90.79594       93.01586
O         48.56593       89.92485       90.93738
H         49.43188       87.79362       92.21979
H         46.59872       88.34854       93.17959
H         46.56801       90.16849       91.39489
H         48.25135       89.51195       90.09168
H         46.91978       90.76063       93.73458
H         48.70805       90.55149       93.55092
H         47.83906       91.83209       92.62039
N         45.63991       87.71801       90.69722
C         45.11340       87.03454       89.52097
C         45.24127       87.99419       88.35886
O         44.78094       89.12420       88.43291
C         43.64944       86.53373       89.74640
C         43.68900       85.25719       90.62843
C         42.93932       86.23837       88.40309
C         42.31919       84.66781       90.97149
H         45.09310       88.51448       91.05561
H         45.72774       86.14473       89.26196
H         43.06310       87.33557       90.24724
H         44.21286       85.48557       91.58063
H         44.26193       84.46789       90.09514
H         43.47610       85.45590       87.82712
H         41.88796       85.92710       88.55832
H         42.87292       87.15838       87.78566
H         41.70683       85.40680       91.52661
H         41.77496       84.33669       90.06344
H         42.46080       83.76614       91.60450
N         45.85691       87.56073       87.22655
C         46.07505       88.37912       86.04715
C         44.95542       88.12273       85.06851
O         44.08224       87.31572       85.34693
C         47.41962       87.99774       85.39276
C         48.56717       87.98844       86.35473
O         48.48043       87.20759       87.44576
O         49.60480       88.57660       86.09730
H         46.13982       86.57420       87.17275
H         46.08048       89.45556       86.32546
H         47.64804       88.65669       84.52795
H         47.33614       86.95498       85.01381
N         44.90280       88.80700       83.89638
C         43.81052       88.62499       82.95706
C         43.77116       87.21961       82.36477
O         42.71038       86.61553       82.47017
C         43.80421       89.75106       81.90884
C         42.60173       89.68986       80.99066
C         41.29080       89.57926       81.50274
C         42.78275       89.76423       79.60056
C         40.19558       89.52214       80.63928
C         41.68014       89.72900       78.74164
C         40.38897       89.60122       79.25990
H         45.62347       89.51703       83.70148
H         42.87680       88.77078       83.53893
H         44.75154       89.75906       81.33038
H         43.74651       90.71156       82.46654
H         41.10004       89.52491       82.56532
H         43.77562       89.86685       79.18135
H         39.19588       89.42060       81.04266
H         41.82738       89.80169       77.67272
H         39.53726       89.56721       78.59386
N         44.82344       86.59203       81.74748
C         44.71981       85.24429       81.20884
C         44.64188       84.17350       82.29299
O         44.34042       83.03994       81.95010
C         45.97165       85.10316       80.34030
C         46.97589       85.93372       81.11370
C         46.14132       87.15243       81.51896
H         43.81901       85.15086       80.56070
H         46.27481       84.05972       80.10417
H         45.79239       85.63983       79.38108
H         47.23452       85.36158       82.03442
H         47.91684       86.17551       80.57547
H         46.60008       87.60062       82.42135
H         46.06952       87.89635       80.69748
N         44.89358       84.44379       83.60917
C         44.72704       83.43910       84.65819
C         43.29036       83.41388       85.15274
O         42.90420       82.44224       85.78874
C         45.65905       83.72835       85.84684
C         47.13709       83.70060       85.43023
C         48.06711       84.05056       86.55445
O         47.60433       84.33890       87.78575
O         49.26633       84.09078       86.34121
H         45.19774       85.38771       83.88333
H         44.98787       82.43585       84.25198
H         45.49276       82.97592       86.64901
H         45.39910       84.72547       86.25268
H         47.31126       84.43315       84.61512
H         47.39362       82.68504       85.05887
N         42.45304       84.46767       84.94440
C         41.08590       84.49062       85.40742
H         40.50788       83.68311       84.91264
H         41.05389       84.36289       86.50944
H         40.62278       85.46854       85.15083
H         42.79546       85.30453       84.46339
Ca        50.21530       86.08241       88.21922
O         47.02104       83.45795       90.76574
H         46.36456       83.07162       91.39696
H         46.47499       83.78189       90.00829
O         49.39389       84.77908       92.22056
H         49.82637       84.17912       92.87793
H         48.46614       84.86392       92.55058

Ca 1.0



