%chk=holoCaM.loop4.water3.frame287.chk
%nprocshared=20
%mem=10GB
%nosave
#b3lyp/svp scf=(tight,noincore,xqc) Test 
#IOP(5/87=12) Density=Current Pop=(MK,readradii) iop(6/33=2) iop(6/42=6)

holoCaM.loop4.water3.frame287 

   -3  1 
C         49.28531       66.91925       81.28557
C         49.84949       68.18237       80.70531
O         49.09394       69.12708       80.53763
H         48.48592       66.52444       80.62502
H         50.06792       66.14296       81.41145
H         48.84874       67.14178       82.28362
N         51.18144       68.29560       80.42837
C         51.79265       69.54118       79.98180
C         52.80040       69.31607       78.86004
O         53.74285       68.55961       79.05354
C         52.49261       70.18258       81.18629
C         53.08930       71.50304       80.81815
O         54.41296       71.70696       80.95691
O         52.37500       72.39146       80.38154
H         51.80164       67.50348       80.65678
H         51.01006       70.25658       79.64470
H         53.28306       69.50423       81.57506
H         51.74809       70.35040       81.99440
N         52.69155       69.99497       77.67988
C         53.67258       69.91469       76.59334
C         54.29316       71.28319       76.24739
O         55.13464       71.32110       75.36298
C         53.02950       69.23343       75.34112
C         51.86531       70.06606       74.73583
C         52.58308       67.80674       75.71789
C         51.20302       69.42402       73.51241
H         51.87366       70.60309       77.55163
H         54.52616       69.27257       76.90209
H         53.81696       69.13390       74.56133
H         52.25163       71.06156       74.42976
H         51.07770       70.22495       75.48782
H         52.24322       67.24057       74.82808
H         53.43840       67.24216       76.14619
H         51.76003       67.82968       76.46375
H         50.41199       70.09928       73.12221
H         51.94956       69.24461       72.71133
H         50.70667       68.46782       73.77914
N         53.90837       72.44141       76.87067
C         54.37274       73.78338       76.46962
C         54.72418       74.72936       77.64384
O         55.19685       75.82656       77.37515
C         53.28578       74.44410       75.58679
C         51.98903       74.63929       76.32386
O         51.89255       74.21219       77.59494
O         51.05024       75.20187       75.78680
H         53.17423       72.36446       77.57540
H         55.28518       73.68656       75.84262
H         53.09940       73.81371       74.69097
H         53.65156       75.43558       75.23931
N         54.51038       74.39831       78.94900
C         54.86631       75.23218       80.09199
C         54.12196       76.55616       80.22468
O         54.79680       77.57624       80.24030
H         54.13070       73.47594       79.16368
H         55.96129       75.42744       80.05185
H         54.67097       74.66281       81.02606
N         52.76115       76.62724       80.40544
C         52.06887       77.89319       80.71521
C         51.29546       77.87772       82.04187
O         51.02711       78.95732       82.55180
C         51.20243       78.40768       79.54177
C         49.97272       77.61801       79.18778
O         49.60415       76.53003       79.87256
O         49.28479       77.97902       78.24773
H         52.22378       75.75523       80.34943
H         52.84157       78.68153       80.84863
H         51.84923       78.46325       78.64034
H         50.85793       79.43720       79.78180
N         50.88611       76.72292       82.64999
C         50.21048       76.67462       83.94615
C         48.77343       76.17107       83.87783
O         48.15732       76.05520       84.92737
H         51.05443       75.82724       82.18363
H         50.17985       77.67890       84.42201
H         50.79940       76.01114       84.61533
N         48.15302       75.91997       82.68934
C         46.74331       75.57806       82.53586
C         46.58176       74.34250       81.66290
O         47.08055       74.34762       80.54489
C         46.00462       76.73645       81.83265
C         46.17085       78.08277       82.55159
C         45.29948       79.14131       81.92272
N         45.44014       79.48445       80.62002
O         44.44927       79.69595       82.60272
H         48.68010       76.05694       81.83416
H         46.26232       75.42554       83.52720
H         44.92389       76.47451       81.78931
H         46.38082       76.84801       80.79149
H         47.23337       78.40842       82.50315
H         45.88783       77.96660       83.62038
H         46.14861       79.03429       80.02315
H         44.83043       80.20347       80.20261
N         45.86190       73.26151       82.08023
C         45.63207       72.10133       81.21591
C         44.78545       72.50288       80.00706
O         43.62771       72.86350       80.16598
C         44.96905       70.93229       81.99978
C         44.62375       69.74795       81.07789
C         45.90436       70.43001       83.11435
H         45.46437       73.27404       83.03139
H         46.61852       71.73075       80.86238
H         44.02233       71.29360       82.45972
H         43.88961       70.04979       80.30293
H         45.53432       69.35724       80.57507
H         44.15527       68.93001       81.66530
H         45.41605       69.61140       83.68442
H         46.85171       70.04131       82.68022
H         46.15410       71.23701       83.83238
N         45.33264       72.46590       78.76022
C         44.62415       72.81284       77.52494
C         43.65490       71.69554       77.12991
O         43.75525       70.59646       77.65532
C         45.71781       73.04496       76.44002
C         45.40691       73.59767       75.06822
N         46.42925       73.81356       74.20650
O         44.27462       73.88124       74.72514
H         46.33253       72.22965       78.69927
H         44.08076       73.76813       77.69351
H         46.27972       72.10093       76.30334
H         46.40189       73.78501       76.87616
H         47.40139       73.60445       74.48032
H         46.25382       74.19983       73.26716
N         42.70518       71.90943       76.17610
C         41.83921       70.87751       75.60797
C         42.66820       69.77420       74.97612
O         42.38252       68.60990       75.21358
C         40.93962       71.50219       74.51752
C         40.07479       70.46456       73.84081
C         39.07992       69.78010       74.55813
C         40.27660       70.15998       72.48393
C         38.30048       68.80583       73.92652
C         39.50113       69.18234       71.85693
C         38.50935       68.50138       72.57675
O         37.75566       67.55389       71.98386
H         42.59500       72.86313       75.81769
H         41.19078       70.44499       76.40211
H         41.59770       71.98894       73.76320
H         40.29407       72.29342       74.95598
H         38.90844       69.99975       75.60443
H         41.04399       70.66874       71.91324
H         37.53604       68.28407       74.48823
H         39.67546       68.95325       70.81322
H         37.87389       67.31086       71.05438
N         43.70445       70.07705       74.14655
C         44.57613       69.06880       73.55095
C         45.26308       68.27362       74.65182
O         45.18487       67.05331       74.65674
C         45.63804       69.73044       72.63816
C         45.00259       70.47066       71.44557
C         46.05109       71.05208       70.54104
O         46.85285       70.32313       69.97871
O         46.09836       72.38147       70.32901
H         43.90230       71.07308       73.97149
H         43.97667       68.37776       72.91650
H         46.30201       68.93100       72.23982
H         46.26288       70.44182       73.22351
H         44.35367       71.29601       71.80539
H         44.37576       69.76766       70.85632
N         45.93438       68.92890       75.63894
C         46.64119       68.27569       76.74353
C         45.71866       67.51956       77.70361
O         46.23121       66.87847       78.61149
C         47.40044       69.33824       77.56664
C         48.46424       70.08803       76.74644
C         49.08223       71.23295       77.50530
O         49.88854       71.95826       76.94778
O         48.73263       71.50024       78.77661
H         45.94468       69.95554       75.58261
H         47.37577       67.55646       76.31787
H         47.90812       68.85233       78.42194
H         46.65212       70.05627       77.96294
H         48.02137       70.52345       75.83057
H         49.24666       69.36375       76.44026
N         44.36330       67.56284       77.59973
C         43.48191       66.88231       78.52207
H         42.42375       67.06094       78.23055
H         43.67580       65.78972       78.50309
H         43.63372       67.27484       79.54916
H         43.92850       68.11150       76.86015
Ca        50.36296       74.61057       79.11476
O         49.21074       72.21026       82.04579
H         48.92408       71.60315       81.32163
H         49.50344       71.60125       82.76863
O         51.67832       73.57582       82.76703
H         51.74384       72.78516       83.35635
H         52.60383       73.92182       82.69900
O         48.39984       74.88527       77.30912
H         47.89941       75.23268       78.09030
H         48.80496       75.68524       76.89714

Ca 1.0



