%chk=holoCaM-CaMKII.loop4.water0.frame442.chk
%nprocshared=20
%mem=10GB
%nosave
#b3lyp/svp scf=(tight,noincore,xqc) Test 
#IOP(5/87=12) Density=Current Pop=(MK,readradii) iop(6/33=2) iop(6/42=6)

holoCaM-CaMKII.loop4.water0.frame442 

   -3  1 
C         62.91549       84.65955       23.98119
C         62.07327       85.08227       25.15097
O         60.85577       85.01604       25.06925
H         63.99993       84.74891       24.21047
H         62.70245       83.59998       23.73096
H         62.69193       85.30236       23.10544
N         62.67140       85.53065       26.28490
C         61.95231       85.93676       27.48428
C         61.02838       87.12134       27.21538
O         61.45885       88.11431       26.64629
C         62.97553       86.32019       28.56560
C         62.38596       86.62636       29.90703
O         63.20479       87.09004       30.85760
O         61.20235       86.45814       30.15579
H         63.70310       85.56515       26.30177
H         61.37494       85.06530       27.86566
H         63.54054       87.21121       28.21788
H         63.69328       85.48466       28.71851
N         59.75662       87.09557       27.69636
C         58.78523       88.17643       27.58622
C         58.64088       88.84467       28.94841
O         58.74092       90.06259       29.01570
C         57.43905       87.59473       27.05161
C         57.64978       87.06267       25.60807
C         56.31002       88.64526       27.09614
C         56.44124       86.33214       25.02019
H         59.46585       86.26820       28.23078
H         59.12790       88.96364       26.87575
H         57.13372       86.75081       27.71080
H         58.48895       86.33617       25.60452
H         57.92280       87.90663       24.93645
H         56.14333       88.99848       28.13539
H         56.55365       89.51758       26.45431
H         55.34494       88.20976       26.76776
H         56.69939       85.96169       24.00528
H         56.17142       85.46253       25.65387
H         55.56457       87.00150       24.91631
N         58.42630       88.11275       30.07982
C         58.22279       88.71042       31.40071
C         59.39457       89.55081       31.90279
O         59.22515       90.22804       32.90838
C         57.98918       87.60354       32.46177
C         56.87012       86.66706       32.10530
O         55.75154       87.11865       31.91906
O         57.06321       85.32767       32.00824
H         58.37028       87.08894       29.99066
H         57.32719       89.36885       31.32918
H         57.75309       88.07948       33.43963
H         58.92115       87.01142       32.57687
N         60.62843       89.49417       31.32701
C         61.79920       90.14986       31.88483
C         62.05229       89.67884       33.30019
O         62.19014       90.51263       34.18423
H         60.77832       88.91033       30.49606
H         61.67957       91.25548       31.85677
H         62.68199       89.88340       31.26464
N         62.07410       88.34494       33.58922
C         62.26356       87.81334       34.93645
C         63.43834       86.84590       35.04833
O         63.71606       86.42729       36.16346
C         60.95466       87.15518       35.43184
C         60.47730       85.96428       34.64364
O         59.33443       85.35690       35.01200
O         61.09555       85.54317       33.68011
H         61.88511       87.68672       32.82335
H         62.48146       88.64734       35.63794
H         60.14884       87.91980       35.40961
H         61.08787       86.82926       36.48578
N         64.16372       86.43031       33.96656
C         65.29537       85.52314       34.07169
C         65.04755       84.16776       33.44370
O         65.92296       83.32456       33.59003
H         63.92363       86.76222       33.03194
H         65.54092       85.32917       35.13591
H         66.18868       85.99691       33.60943
N         63.91272       83.85143       32.74795
C         63.67765       82.49286       32.26401
C         62.68881       82.38270       31.12097
O         62.04227       83.35596       30.75600
C         63.28227       81.55900       33.43344
C         62.25523       82.08148       34.46911
C         60.85782       82.59227       34.04739
N         59.86246       82.28919       35.07506
O         60.38681       82.22653       32.78713
H         63.20604       84.57616       32.56384
H         64.61654       82.12258       31.79255
H         64.20147       81.35895       34.02560
H         62.94866       80.57509       33.04215
H         62.70899       82.91600       35.04688
H         62.12749       81.24645       35.19191
H         59.77137       81.25033       35.16488
H         58.93111       82.65236       34.77028
N         62.59159       81.18532       30.46022
C         61.72996       80.95255       29.31214
C         60.84366       79.74820       29.60034
O         61.34639       78.63279       29.65239
C         62.59607       80.70465       28.04031
C         61.72542       80.56979       26.78153
C         63.62186       81.82984       27.82721
H         63.19829       80.40393       30.75714
H         61.09981       81.85147       29.13515
H         63.17270       79.76091       28.17250
H         61.15860       81.50745       26.59952
H         62.36344       80.36453       25.89519
H         61.01060       79.72888       26.88136
H         64.31636       81.89490       28.69180
H         64.24042       81.61773       26.92877
H         63.11536       82.80896       27.69712
N         59.51241       79.90504       29.82944
C         58.60134       78.78498       30.07215
C         58.35850       78.04355       28.75525
O         58.78536       78.52642       27.72273
C         57.29997       79.36279       30.70850
C         56.27895       78.37631       31.24141
N         56.02819       78.29003       32.56939
O         55.63233       77.68343       30.47614
H         59.14500       80.86390       29.86399
H         59.06902       78.10828       30.82182
H         56.79710       80.05081       29.99414
H         57.63387       79.97761       31.57330
H         56.53627       78.87362       33.24886
H         55.31678       77.63177       32.92210
N         57.66756       76.87452       28.70717
C         57.25770       76.21011       27.46405
C         56.42367       77.14499       26.59171
O         56.73039       77.28324       25.41578
C         56.45806       74.93772       27.82768
C         55.74406       74.28279       26.66537
C         56.43316       73.83720       25.52425
C         54.34977       74.11156       26.73237
C         55.73251       73.23521       24.47009
C         53.65622       73.50559       25.68554
C         54.34447       73.06528       24.54865
O         53.68270       72.47825       23.53105
H         57.39308       76.44872       29.60237
H         58.15110       75.89906       26.87650
H         55.69925       75.21047       28.59363
H         57.15379       74.20782       28.29577
H         57.50594       73.95857       25.44622
H         53.79428       74.44258       27.60119
H         56.26771       72.89804       23.59136
H         52.58347       73.37931       25.76223
H         52.72447       72.33963       23.55504
N         55.37230       77.83413       27.11320
C         54.51746       78.74541       26.35242
C         55.34611       79.77738       25.60118
O         55.17877       79.92546       24.39890
C         53.54005       79.44920       27.32484
C         52.46408       80.26910       26.60109
C         51.57154       80.96242       27.59186
O         51.46983       82.17882       27.57943
O         50.87700       80.24684       28.49771
H         55.18366       77.71695       28.11593
H         53.92476       78.14994       25.62287
H         54.11558       80.10587       28.01637
H         53.02265       78.67794       27.93710
H         51.84673       79.58947       25.97483
H         52.93712       81.02775       25.94121
N         56.28967       80.49763       26.26291
C         57.15751       81.49824       25.64273
C         57.93897       80.89423       24.48583
O         57.86067       81.42162       23.38505
C         58.10596       82.08087       26.71461
C         57.31236       82.89030       27.75882
C         58.15577       83.27281       28.93116
O         59.17770       83.91927       28.78482
O         57.77474       82.89498       30.16416
H         56.41325       80.28943       27.26533
H         56.54385       82.33592       25.23977
H         58.85486       82.75918       26.24800
H         58.65221       81.24449       27.20387
H         56.45935       82.30344       28.15673
H         56.90173       83.80289       27.27934
N         58.68009       79.76649       24.65534
C         59.41574       79.10855       23.59584
H         60.48381       79.02782       23.88660
H         59.00810       78.08496       23.45179
H         59.34896       79.65218       22.63100
H         58.70362       79.32632       25.57617
Ca        58.88959       83.98041       32.42310

Ca 1.0



