%chk=holoCaM-CaMKII.loop4.water2.frame10.chk
%nprocshared=20
%mem=10GB
%nosave
#b3lyp/svp scf=(tight,noincore,xqc) Test 
#IOP(5/87=12) Density=Current Pop=(MK,readradii) iop(6/33=2) iop(6/42=6)

holoCaM-CaMKII.loop4.water2.frame10 

   -3  1 
C         64.26496       61.83604       25.27350
C         63.69972       61.11024       26.45699
O         63.31144       61.74122       27.42792
H         65.30578       61.49278       25.09243
H         63.65046       61.61224       24.37550
H         64.27046       62.93269       25.44329
N         63.62584       59.75502       26.43163
C         63.08018       58.95016       27.51669
C         63.89515       59.13335       28.79628
O         65.10677       58.97135       28.75813
C         63.08813       57.47083       27.08773
C         62.39062       56.56086       28.04994
O         62.40923       55.36232       27.84376
O         61.72419       57.04132       29.11516
H         63.96349       59.27578       25.58115
H         62.02020       59.24386       27.67709
H         64.14006       57.13472       26.96402
H         62.56632       57.36227       26.11093
N         63.27434       59.42041       29.97712
C         63.96445       59.59622       31.25328
C         63.75503       58.38021       32.15616
O         64.74135       57.92120       32.71695
C         63.53076       60.94005       31.93366
C         64.02927       62.13997       31.07633
C         64.07625       61.03623       33.37559
C         63.73165       63.52899       31.65743
H         62.24733       59.48312       29.98319
H         65.06651       59.66362       31.10257
H         62.42119       60.97078       32.00934
H         63.55835       62.08314       30.07323
H         65.13190       62.06924       30.94620
H         63.71893       61.95756       33.87842
H         63.69365       60.20085       33.99817
H         65.18601       61.01780       33.38381
H         64.26889       63.69158       32.61431
H         64.09204       64.30726       30.95158
H         62.64745       63.67674       31.82260
N         62.53433       57.80011       32.35489
C         62.31900       56.72960       33.33776
C         62.23641       55.32455       32.73588
O         61.94443       54.39245       33.47248
C         61.10751       57.07558       34.23325
C         59.76614       57.04896       33.54895
O         59.65647       56.73575       32.37580
O         58.66203       57.34982       34.25757
H         61.72831       58.14325       31.81338
H         63.18478       56.68272       34.03450
H         61.26823       58.08801       34.66412
H         61.06346       56.35189       35.07528
N         62.58355       55.07456       31.44332
C         62.65136       53.73597       30.87102
C         61.29756       53.08285       30.68937
O         61.09064       51.98006       31.17374
H         62.90897       55.85183       30.85598
H         63.32382       53.09806       31.48537
H         63.10556       53.81117       29.86020
N         60.34496       53.70726       29.94727
C         59.04986       53.13007       29.57495
C         58.84738       53.13524       28.05446
O         57.76360       52.78960       27.60476
C         57.89779       53.84730       30.32157
C         57.82014       55.33981       30.16487
O         58.71213       56.00369       29.41573
O         56.99608       55.96680       30.81062
H         60.57521       54.64890       29.60793
H         58.98465       52.06803       29.89912
H         58.04151       53.65118       31.40676
H         56.92509       53.39794       30.02574
N         59.85930       53.46452       27.19817
C         59.74822       53.45858       25.74695
C         58.92297       54.58985       25.15879
O         58.86089       54.65569       23.93802
H         60.79232       53.65399       27.57512
H         59.36089       52.47435       25.40621
H         60.77155       53.57833       25.32657
N         58.27599       55.51808       25.92260
C         57.51099       56.63361       25.36452
C         58.03790       57.96112       25.88188
O         58.92796       57.96435       26.72576
C         56.02314       56.45707       25.72362
C         55.42092       55.25894       24.97167
C         53.97449       55.04830       25.32719
N         53.62032       54.66690       26.57610
O         53.11373       55.20284       24.47364
H         58.31107       55.44182       26.94756
H         57.60835       56.66969       24.25655
H         55.44781       57.35963       25.42484
H         55.92510       56.33222       26.82518
H         55.97673       54.32306       25.19260
H         55.50480       55.46423       23.88077
H         54.33527       54.50754       27.30083
H         52.62960       54.51023       26.81336
N         57.55566       59.14126       25.38284
C         58.03790       60.44759       25.82193
C         56.86901       61.28628       26.31829
O         56.00885       61.63807       25.52025
C         58.78693       61.18353       24.67281
C         59.44224       62.47798       25.18638
C         59.87157       60.29845       24.03971
H         56.84156       59.11312       24.63730
H         58.76222       60.30845       26.64501
H         58.06088       61.44156       23.86958
H         59.94976       63.01335       24.35661
H         58.68747       63.16501       25.61554
H         60.19886       62.24405       25.96656
H         60.62807       59.99521       24.79448
H         59.42010       59.38801       23.59238
H         60.38085       60.85069       23.22040
N         56.76753       61.64040       27.63028
C         55.68782       62.48710       28.14577
C         55.92051       63.93544       27.68934
O         57.02300       64.23195       27.25253
C         55.69959       62.37635       29.69668
C         54.51655       62.91863       30.46260
N         54.53338       62.88581       31.81510
O         53.53233       63.35339       29.88966
H         57.47113       61.26966       28.28753
H         54.72627       62.08049       27.76105
H         56.62713       62.85476       30.07394
H         55.74523       61.29883       29.96633
H         55.34903       62.51070       32.32155
H         53.73157       63.23763       32.35883
N         54.95627       64.90225       27.76881
C         55.23310       66.31070       27.47028
C         56.22954       66.88060       28.47118
O         56.98882       67.77148       28.11585
C         53.93781       67.14850       27.48910
C         54.18262       68.60160       27.13805
C         54.72387       68.95608       25.88897
C         53.87162       69.61661       28.05947
C         54.95382       70.29824       25.57175
C         54.09925       70.95865       27.73817
C         54.64238       71.30357       26.49230
O         54.86748       72.59326       26.16918
H         54.00391       64.64232       28.04743
H         55.66717       66.36191       26.44727
H         53.47709       67.06757       28.49892
H         53.22013       66.72620       26.75351
H         54.97087       68.19581       25.15943
H         53.45358       69.37181       29.02781
H         55.37421       70.55694       24.60789
H         53.85368       71.72902       28.45836
H         54.66285       73.31952       26.77542
N         56.29883       66.37846       29.73626
C         57.31652       66.75617       30.70929
C         58.68978       66.46491       30.13227
O         59.52131       67.35955       30.07010
C         57.07278       65.95462       32.01406
C         58.13004       66.18203       33.10191
C         57.77284       65.40710       34.34012
O         58.51600       64.53261       34.75639
O         56.62794       65.67493       34.99785
H         55.61884       65.65277       30.00811
H         57.23740       67.84128       30.94538
H         57.04452       64.86563       31.78594
H         56.07397       66.24695       32.40883
H         58.19652       67.25997       33.35810
H         59.12112       65.84068       32.72941
N         58.98111       65.21685       29.67966
C         60.28351       64.83626       29.14186
C         60.61352       65.53482       27.82879
O         61.76603       65.47886       27.42207
C         60.31271       63.32564       28.87167
C         60.08512       62.47826       30.13257
C         59.96792       61.02847       29.79368
O         59.68376       60.14176       30.75371
O         60.08457       60.63557       28.64516
H         58.23773       64.50906       29.74454
H         61.05976       65.09088       29.89759
H         61.28858       63.03644       28.42678
H         59.50671       63.10111       28.13683
H         59.13965       62.75839       30.63561
H         60.91356       62.62559       30.84870
N         59.65268       66.14034       27.07514
C         59.90896       66.76425       25.79343
H         60.98166       66.73170       25.51074
H         59.32433       66.23828       25.00871
H         59.58451       67.82468       25.83084
H         58.67915       66.13301       27.39333
Ca        59.18603       58.11919       29.94665
O         57.09917       59.62732       31.82063
H         57.49430       58.91753       32.38570
H         56.41581       60.05382       32.39477
O         56.25676       58.66408       28.87872
H         55.89441       58.34455       29.74269
H         55.46396       58.73823       28.29074

Ca 1.0



