%chk=holoCaM.loop1.water2.frame208.chk
%nprocshared=20
%mem=10GB
%nosave
#b3lyp/svp scf=(tight,noincore,xqc) Test 
#IOP(5/87=12) Density=Current Pop=(MK,readradii) iop(6/33=2) iop(6/42=6)

holoCaM.loop1.water2.frame208 

   0  1 
C         12.19006       66.15444      100.42142
C         12.25335       65.20116      101.57457
O         11.46375       65.32666      102.49954
H         13.16054       66.68581      100.32900
H         11.98957       65.59231       99.48533
H         11.38350       66.90277      100.57275
N         13.18179       64.20554      101.57722
C         13.30809       63.23599      102.65906
C         13.67718       63.96253      103.95100
O         14.79259       64.44941      104.06678
C         14.35029       62.17260      102.24205
C         14.59335       61.07167      103.22362
O         13.98801       61.05112      104.42292
O         15.36326       60.17641      102.92330
H         13.80863       64.13172      100.75964
H         12.32429       62.72888      102.77513
H         15.32489       62.66657      102.03673
H         13.99395       61.70198      101.29819
N         12.73020       64.16579      104.91582
C         12.94628       65.03042      106.07627
C         13.84333       64.43436      107.15004
O         14.26482       65.19304      108.01639
C         11.59560       65.56184      106.63750
C         10.56703       64.54706      107.19058
C         10.94221       63.89660      108.52448
C          9.79511       63.01059      109.03735
N         10.13306       62.39532      110.32049
H         11.77907       63.83968      104.71992
H         13.46703       65.93685      105.69339
H         11.09364       66.07659      105.78774
H         11.78712       66.33367      107.41406
H         10.35535       63.75779      106.44857
H          9.62337       65.11209      107.35830
H         11.15170       64.68948      109.27460
H         11.83597       63.26763      108.39018
H          9.58205       62.21491      108.29216
H          8.87390       63.62253      109.16122
H         10.30351       63.13578      111.03923
H          9.33454       61.79757      110.63491
H         10.98337       61.79595      110.22178
N         14.15171       63.10605      107.20295
C         15.00251       62.51697      108.24021
C         16.17117       61.70827      107.67955
O         16.92605       61.16385      108.46808
C         14.15811       61.66461      109.21892
C         13.43095       60.48578      108.62532
O         12.68443       59.70722      109.43109
O         13.50621       60.21796      107.43823
H         13.71711       62.48066      106.50940
H         15.45620       63.31823      108.86466
H         13.41195       62.32596      109.70433
H         14.82114       61.28453      110.02552
N         16.39913       61.59349      106.33837
C         17.50063       60.82053      105.78868
C         17.37955       59.34635      106.10498
O         18.29814       58.78318      106.68452
H         15.79945       62.08981      105.67192
H         18.46481       61.22559      106.16412
H         17.49577       60.92962      104.68147
N         16.27654       58.65234      105.71341
C         16.10385       57.21127      105.87060
C         15.99298       56.52038      104.51018
O         15.66603       55.34310      104.46515
C         14.90116       56.91019      106.79783
C         13.54152       57.37121      106.34023
O         12.47599       57.12533      107.12507
O         13.38214       57.96782      105.28951
H         15.52629       59.17396      105.24326
H         16.98459       56.75924      106.37764
H         15.10228       57.38224      107.78380
H         14.84656       55.81131      106.95597
N         16.32621       57.17788      103.35911
C         16.30020       56.58026      102.03591
C         14.91647       56.40427      101.44782
O         14.85617       56.00951      100.29169
H         16.70409       58.13186      103.41243
H         16.85847       55.61881      102.03620
H         16.83045       57.27193      101.34436
N         13.76780       56.67325      102.13976
C         12.44110       56.56985      101.53523
C         11.61907       57.87292      101.73240
O         12.46798       58.97031      101.87959
C         11.66866       55.36111      102.10923
C         12.34146       54.02986      101.74698
O         11.50376       55.47333      103.50063
H         13.82192       56.96050      103.12159
H         12.54846       56.40688      100.43951
H         10.65641       55.33522      101.65118
H         12.38065       55.30130      103.93396
H         13.36592       53.97153      102.17183
H         11.74187       53.18545      102.14660
H         12.40554       53.92614      100.64270
N         10.75097       58.08947      100.56427
C          9.76692       59.19038      100.64838
C          8.35319       58.63270      100.83908
O          7.95136       57.70698      100.14834
C          9.91030       60.08753       99.37857
C         11.28945       60.81129       99.43642
C          8.76884       61.12007       99.26749
C         11.61544       61.68453       98.22478
H         10.33836       57.20702      100.18369
H          9.98434       59.85900      101.51267
H          9.85700       59.43802       98.47746
H         12.09811       60.05530       99.51348
H         11.33326       61.45553      100.34469
H          8.78219       61.81748      100.12595
H          8.85013       61.70752       98.33122
H          7.78201       60.61663       99.21976
H         10.90183       62.52654       98.12135
H         12.62552       62.12807       98.36039
H         11.61480       61.07308       97.29922
N          7.52702       59.22801      101.73961
C          6.16636       58.81979      102.06064
C          5.18691       59.84543      101.52146
O          5.59516       60.80539      100.88248
C          6.01331       58.72473      103.61059
C          6.94009       57.65627      104.20127
O          6.27031       59.98829      104.17932
H          7.86960       60.06946      102.20200
H          5.92032       57.83969      101.59684
H          4.97506       58.43157      103.87340
H          6.31929       59.88816      105.16561
H          6.69501       56.66220      103.77380
H          7.99878       57.89817      103.98593
H          6.79993       57.60151      105.30333
N          3.85886       59.70643      101.77035
C          2.86438       60.71402      101.42472
C          3.16311       62.03246      102.13454
O          3.04148       63.07213      101.50361
C          1.43760       60.22086      101.77462
C          1.04433       59.01371      100.90444
O          1.36104       59.88750      103.13793
H          3.54649       58.86095      102.26976
H          2.87716       60.89865      100.32601
H          0.72410       61.04781      101.55272
H          0.40931       59.68502      103.33466
H          1.71636       58.14771      101.07628
H          0.00533       58.69861      101.13621
H          1.08793       59.28877       99.82862
N          3.55407       62.06816      103.44548
C          3.79639       63.32816      104.16201
C          5.00762       64.09755      103.63110
O          5.19109       65.24512      104.01452
C          4.05201       63.12022      105.67463
C          3.06288       62.18385      106.37852
C          3.30219       62.18757      107.89154
C          2.52222       61.05265      108.56412
N          2.68667       61.09281      110.01547
H          3.64867       61.17103      103.93612
H          2.87401       63.93995      104.04577
H          4.02232       64.12327      106.15818
H          5.06948       62.69313      105.82755
H          3.22761       61.15156      106.00977
H          2.01248       62.48063      106.17074
H          2.99274       63.17493      108.30041
H          4.38285       62.03584      108.10897
H          2.90685       60.08054      108.17855
H          1.44160       61.12725      108.31339
H          2.20135       60.26760      110.43543
H          3.70081       61.05551      110.26917
H          2.25872       61.96849      110.39453
N          5.91307       63.50094      102.80918
C          7.14517       64.11466      102.32846
C          7.11814       64.26994      100.80871
O          8.08892       64.77702      100.26412
C          8.31509       63.18540      102.71175
C          8.53249       63.00094      104.22777
C          9.35143       61.75444      104.44200
O         10.64053       61.77969      104.78971
O          8.86674       60.67305      104.17540
H          5.75337       62.52766      102.53044
H          7.29620       65.12542      102.76659
H          9.27581       63.52696      102.26470
H          8.07174       62.21147      102.25429
H          7.57747       62.85757      104.77517
H          9.03196       63.91403      104.61109
N          6.05347       63.85724      100.05707
C          5.98762       63.96832       98.61561
H          5.10426       64.58156       98.33878
H          6.89536       64.43442       98.18178
H          5.86649       62.95414       98.17884
H          5.23617       63.43184      100.50397
Ca        11.64040       60.08187      103.69104
O         10.08704       57.82774      105.47688
H          9.36659       57.57760      106.10763
H         10.45719       56.96060      105.18356
O          9.65553       59.72830      107.66110
H         10.56933       59.37268      107.79485
H          9.12719       59.34191      108.40363

Ca 1.0



