%chk=holoCaM-CaMKII.loop4.water2.frame183.chk
%nprocshared=20
%mem=10GB
%nosave
#b3lyp/svp scf=(tight,noincore,xqc) Test 
#IOP(5/87=12) Density=Current Pop=(MK,readradii) iop(6/33=2) iop(6/42=6)

holoCaM-CaMKII.loop4.water2.frame183 

   -3  1 
C         -3.81521       43.32422       16.73866
C         -4.28900       42.07620       17.42975
O         -4.11912       40.99407       16.88812
H         -2.71873       43.27070       16.57619
H         -4.32806       43.42783       15.76003
H         -4.03323       44.23151       17.34277
N         -4.89327       42.15765       18.64574
C         -5.37812       41.00091       19.39343
C         -6.49287       40.29459       18.62379
O         -7.32210       40.96746       18.02752
C         -5.87006       41.47705       20.77634
C         -6.17587       40.37946       21.75438
O         -6.58463       40.71143       22.98731
O         -6.01135       39.20461       21.47716
H         -4.99776       43.09399       19.06830
H         -4.52145       40.30951       19.56707
H         -6.76716       42.12007       20.65038
H         -5.06534       42.08508       21.24623
N         -6.57458       38.93261       18.61494
C         -7.54877       38.16332       17.84530
C         -8.52326       37.47179       18.78643
O         -9.70716       37.77371       18.72350
C         -6.80631       37.13509       16.93622
C         -5.73616       37.79769       16.03057
C         -7.78592       36.27895       16.11544
C         -6.28326       38.80298       15.01655
H         -5.90588       38.41254       19.18632
H         -8.14648       38.84395       17.20130
H         -6.24895       36.42928       17.58607
H         -5.19259       37.00134       15.47685
H         -4.98706       38.31550       16.66770
H         -8.41144       36.90715       15.45014
H         -7.22442       35.54133       15.50312
H         -8.45973       35.70561       16.78667
H         -6.98690       38.31336       14.31353
H         -6.79177       39.64653       15.52466
H         -5.43976       39.21717       14.42585
N         -8.10309       36.52979       19.68035
C         -9.00762       35.86606       20.61775
C         -9.75465       36.88310       21.47027
O        -10.97788       36.87155       21.45517
C         -8.29154       34.77644       21.47195
C         -7.00908       35.14805       22.18371
O         -6.41166       36.33283       21.97150
O         -6.46309       34.32397       22.89914
H         -7.10577       36.27966       19.68749
H         -9.78146       35.31380       20.03710
H         -8.02620       33.93152       20.80011
H         -9.02371       34.38999       22.21544
N         -9.09256       37.80442       22.21512
C         -9.73726       38.81898       23.01945
C         -9.44864       38.58073       24.47828
O        -10.38526       38.51956       25.26140
H         -8.07358       37.82250       22.19956
H        -10.83690       38.84434       22.86062
H         -9.33635       39.81060       22.71315
N         -8.16487       38.45522       24.91824
C         -7.79676       38.35088       26.32503
C         -6.96710       39.56807       26.72511
O         -6.32430       39.54676       27.76514
C         -7.09618       36.99981       26.61455
C         -5.75382       36.78246       25.97231
O         -5.23427       37.63931       25.28199
O         -5.10110       35.62515       26.18896
H         -7.39913       38.49160       24.22987
H         -8.70117       38.34930       26.97189
H         -7.77417       36.17931       26.29254
H         -6.95176       36.90699       27.71257
N         -7.01335       40.70606       25.96999
C         -6.31920       41.93563       26.29254
C         -4.84166       41.94689       25.95651
O         -4.24834       42.99618       26.16946
H         -7.65770       40.75545       25.17039
H         -6.49529       42.19582       27.35804
H         -6.76681       42.74681       25.67637
N         -4.16914       40.88006       25.42161
C         -2.75090       40.95230       25.06493
C         -2.49143       40.57882       23.61247
O         -3.38517       40.11600       22.91635
C         -1.89800       40.02646       25.95677
C         -2.02398       40.33095       27.45240
C         -0.94727       39.59740       28.21501
N         -1.25192       38.65067       29.13041
O          0.22555       39.86837       27.99914
H         -4.66453       39.99427       25.26460
H         -2.37606       41.98999       25.20425
H         -0.83471       40.16809       25.66885
H         -2.16152       38.96068       25.78134
H         -3.04017       40.03830       27.79650
H         -1.88857       41.41790       27.63807
H         -2.22983       38.39628       29.32644
H         -0.49885       38.16242       29.63865
N         -1.23635       40.74544       23.11041
C         -0.78467       40.34052       21.78639
C          0.38122       39.37742       21.98449
O          1.33978       39.76840       22.64079
C         -0.33821       41.60479       20.98880
C          0.24969       41.24846       19.61330
C         -1.51462       42.57536       20.78825
H         -0.52947       41.19086       23.71784
H         -1.59647       39.83995       21.21404
H          0.45222       42.13587       21.56590
H          1.14338       40.60212       19.72213
H         -0.50281       40.73023       18.98438
H          0.57576       42.17068       19.08537
H         -2.32429       42.09309       20.19932
H         -1.92869       42.90463       21.76372
H         -1.17484       43.48333       20.24397
N          0.40333       38.12998       21.42022
C          1.57115       37.25202       21.51542
C          2.38314       37.36280       20.24192
O          2.01988       38.15457       19.39160
C          1.22691       35.78841       21.90600
C          0.75445       34.87846       20.79202
N         -0.48071       34.97768       20.26504
O          1.50161       33.99784       20.38998
H         -0.36686       37.85327       20.80132
H          2.23131       37.61607       22.33241
H          0.52734       35.75580       22.76789
H          2.17879       35.34345       22.26748
H         -1.14611       35.67205       20.61883
H         -0.77946       34.32432       19.52394
N          3.51773       36.64260       20.04713
C          4.37184       36.81528       18.87445
C          3.62609       36.55172       17.57002
O          3.68203       37.38840       16.68062
C          5.60915       35.90431       18.98919
C          6.64674       36.22301       17.93952
C          7.25398       37.49235       17.91099
C          7.03172       35.25898       16.99520
C          8.22531       37.79162       16.95409
C          8.00653       35.56078       16.03817
C          8.60702       36.82894       16.01596
O          9.55186       37.13203       15.10354
H          3.80656       35.97535       20.77862
H          4.72561       37.86961       18.87395
H          5.28561       34.84127       18.93418
H          6.08987       36.05932       19.97987
H          6.98228       38.25180       18.63344
H          6.58039       34.27484       16.99992
H          8.68455       38.77246       16.94628
H          8.29619       34.80784       15.31673
H          9.85214       36.49304       14.44199
N          2.88474       35.42004       17.40469
C          2.12886       35.10919       16.18786
C          1.17965       36.23852       15.81859
O          1.22552       36.70426       14.68831
C          1.32070       33.80114       16.36234
C          2.22670       32.56580       16.49728
C          1.41547       31.31175       16.65989
O          0.62797       30.96821       15.79233
O          1.56641       30.54980       17.76018
H          2.83339       34.76895       18.20085
H          2.83126       34.96538       15.33634
H          0.68171       33.65382       15.46257
H          0.65376       33.88565       17.24976
H          2.89763       32.66981       17.37454
H          2.85543       32.46775       15.58590
N          0.30428       36.73768       16.73107
C         -0.64352       37.81728       16.44211
C          0.08252       39.06396       15.95087
O         -0.35174       39.65123       14.97031
C         -1.52436       38.11961       17.67923
C         -2.36090       36.88091       18.06106
C         -3.22726       37.08229       19.26725
O         -4.38067       36.69833       19.24550
O         -2.72278       37.57134       20.41196
H          0.34140       36.33945       17.68066
H         -1.34013       37.49404       15.63614
H         -2.21551       38.96009       17.45048
H         -0.87575       38.41810       18.53025
H         -1.69253       36.04108       18.29037
H         -2.99372       36.56359       17.20353
N          1.24074       39.47212       16.53676
C          2.03725       40.59519       16.08932
H          3.03480       40.22594       15.76532
H          1.57003       41.13592       15.24159
H          2.18195       41.30199       16.93264
H          1.61302       38.93012       17.31475
Ca        -4.40023       36.96459       22.74502
O         -3.32235       34.36644       21.94336
H         -3.07165       33.44603       21.68164
H         -3.77579       34.26046       22.81709
O         -2.08120       36.65482       24.43898
H         -1.22512       36.18270       24.58716
H         -2.77405       35.99143       24.68397

Ca 1.0



