%chk=holoCaM-CaMKII.loop3.water1.frame483.chk
%nprocshared=20
%mem=10GB
%nosave
#b3lyp/svp scf=(tight,noincore,xqc) Test 
#IOP(5/87=12) Density=Current Pop=(MK,readradii) iop(6/33=2) iop(6/42=6)

holoCaM-CaMKII.loop3.water1.frame483 

   0  1 
C         76.03829       70.40761       64.90412
C         75.67175       69.26790       64.00340
O         76.10374       69.24626       62.85963
H         76.69753       71.12992       64.37681
H         75.11926       70.93276       65.23658
H         76.57901       70.01624       65.79190
N         74.88715       68.25757       64.47097
C         74.54550       67.09344       63.66364
C         73.68270       67.52298       62.49091
O         72.57980       68.00534       62.71276
C         73.82014       66.05129       64.53847
C         73.64523       64.71043       63.89300
O         74.07178       64.47179       62.77368
O         73.03413       63.74204       64.59300
H         74.56626       68.30486       65.45116
H         75.49965       66.64223       63.31176
H         72.82931       66.44755       64.85025
H         74.41341       65.87176       65.45768
N         74.15371       67.44016       61.21461
C         73.44302       68.03296       60.08611
C         72.39925       67.08224       59.50292
O         71.53980       67.54461       58.76675
C         74.47529       68.49340       59.03269
C         73.93768       69.48654       57.99150
C         75.06978       69.91092       57.04175
C         74.62505       71.02011       56.08014
N         75.71094       71.38201       55.16786
H         75.11531       67.10011       61.07491
H         72.93879       68.95215       60.46267
H         74.92121       67.60187       58.53927
H         75.28524       69.03168       59.57593
H         73.55611       70.38343       58.52844
H         73.10981       69.04163       57.40146
H         75.40619       69.02329       56.46234
H         75.93057       70.29394       57.63410
H         74.32882       71.91715       56.66947
H         73.74647       70.68107       55.48894
H         75.39480       72.16224       54.54783
H         76.54936       71.69894       55.70757
H         75.96676       70.56028       54.57333
N         72.44189       65.73553       59.74569
C         71.48455       64.77239       59.19318
C         70.84181       63.90359       60.28254
O         70.06150       63.02826       59.93367
C         72.16875       63.91696       58.09787
C         73.32075       63.13009       58.62417
O         73.13946       62.06493       59.18019
O         74.49477       63.75323       58.74599
H         73.21963       65.35954       60.30682
H         70.65780       65.30312       58.67381
H         72.55034       64.60130       57.30768
H         71.44420       63.23169       57.60889
N         71.07409       64.10711       61.61622
C         70.40176       63.35580       62.67055
C         70.83014       61.90346       62.82762
O         70.22456       61.22785       63.64792
H         71.67082       64.88872       61.91476
H         69.30632       63.39958       62.48621
H         70.58807       63.85314       63.64597
N         71.84044       61.33946       62.10298
C         72.17983       59.91572       62.19994
C         72.75604       59.48635       63.54708
O         72.89795       58.28654       63.74073
C         73.12893       59.48442       61.05580
C         74.48671       60.15151       61.04826
N         75.36199       59.86965       60.05716
O         74.79946       60.95230       61.91563
H         72.33608       61.92327       61.42193
H         71.23408       59.34862       62.04776
H         72.62538       59.70730       60.09167
H         73.28311       58.38421       61.10162
H         75.11675       59.20086       59.31280
H         76.28422       60.32650       60.02824
N         73.12702       60.37913       64.51096
C         73.64479       59.97289       65.81036
C         75.07155       60.41086       66.06925
O         75.57636       60.05280       67.12453
H         73.03480       61.38228       64.32867
H         73.62962       58.86724       65.91433
H         72.98807       60.38859       66.60412
N         75.79431       61.17301       65.19298
C         77.19744       61.52062       65.43884
C         77.68485       62.67411       64.57059
O         76.95391       63.15325       63.71374
C         78.08127       60.25034       65.33319
C         77.91268       59.50315       64.02651
C         78.46694       59.98625       62.82916
C         77.19732       58.29071       64.00687
C         78.31371       59.26302       61.63969
C         77.03099       57.58140       62.81556
C         77.59268       58.06333       61.62706
O         77.44494       57.38500       60.47067
H         75.33617       61.51866       64.34084
H         77.27470       61.92539       66.47282
H         77.77588       59.57512       66.15823
H         79.15523       60.46543       65.51581
H         79.03095       60.90979       62.81612
H         76.75542       57.89640       64.91355
H         78.75399       59.63446       60.72371
H         76.46803       56.65606       62.81926
H         76.94659       56.55632       60.42002
N         78.90938       63.22713       64.81970
C         79.39285       64.45120       64.18897
C         80.64863       64.15276       63.39552
O         81.58654       63.60227       63.95704
C         79.70042       65.53544       65.26974
C         78.55865       65.73535       66.29978
C         80.07828       66.87801       64.60731
C         77.22927       66.19640       65.71409
H         79.50869       62.79865       65.54218
H         78.62009       64.86714       63.51127
H         80.57562       65.19566       65.86778
H         78.88434       66.48656       67.05265
H         78.38523       64.78290       66.84509
H         79.25149       67.26079       63.97189
H         80.31521       67.63898       65.38073
H         80.97412       66.76445       63.96364
H         76.83554       65.44760       65.00055
H         76.49508       66.31348       66.53858
H         77.33480       67.17497       65.20763
N         80.75672       64.54805       62.09545
C         81.95672       64.34169       61.29339
C         82.63833       65.66979       61.00539
O         82.14434       66.70637       61.41905
C         81.57933       63.60114       60.00108
O         80.98647       62.36672       60.30183
H         79.97311       65.05843       61.66237
H         82.69806       63.72514       61.84670
H         82.46348       63.44053       59.34518
H         80.85291       64.20822       59.41793
H         81.72078       61.75425       60.56857
N         83.82551       65.69734       60.33821
C         84.59529       66.91490       60.08752
C         83.84012       67.90652       59.22475
O         83.75696       69.06829       59.59749
C         85.92209       66.56428       59.40834
H         84.22240       64.79729       60.02730
H         84.85051       67.39549       61.05926
H         86.52429       67.48523       59.25242
H         86.50399       65.87591       60.05804
H         85.74950       66.07314       58.42737
N         83.25004       67.50798       58.06257
C         82.51240       68.40319       57.17121
C         81.47462       69.20740       57.92771
O         81.42828       70.42097       57.78356
C         81.81920       67.58399       56.07271
H         83.29956       66.50560       57.82069
H         83.21981       69.10767       56.68099
H         82.57056       67.01283       55.48754
H         81.09579       66.86410       56.51540
H         81.26974       68.25505       55.37831
N         80.63510       68.57990       58.78857
C         79.60555       69.25681       59.57144
C         80.21997       70.32096       60.45877
O         79.83182       71.47588       60.35136
C         78.84493       68.22484       60.42685
C         78.12307       67.21111       59.52897
C         77.50796       66.07783       60.27632
O         77.55894       65.98719       61.49202
O         76.88024       65.14416       59.55563
H         80.76655       67.56447       58.90299
H         78.87478       69.74155       58.88357
H         78.09116       68.73407       61.06619
H         79.56584       67.69375       61.08576
H         78.81833       66.73619       58.81150
H         77.34246       67.73555       58.93917
N         81.20098       70.00015       61.34610
C         81.84755       70.95897       62.21609
H         82.93261       70.98842       61.98232
H         81.43386       71.98229       62.10127
H         81.71625       70.64020       63.27102
H         81.52371       69.02794       61.40215
Ca        75.97807       63.26941       60.33228
O         78.37796       62.02645       58.84084
H         78.23171       61.11579       58.48117
H         78.36650       61.90957       59.82410

Ca 1.0



