%chk=holoCaM.loop4.water3.frame107.chk
%nprocshared=20
%mem=10GB
%nosave
#b3lyp/svp scf=(tight,noincore,xqc) Test 
#IOP(5/87=12) Density=Current Pop=(MK,readradii) iop(6/33=2) iop(6/42=6)

holoCaM.loop4.water3.frame107 

   -3  1 
C         94.04018        2.30367       49.57690
C         93.76768        1.05878       48.78716
O         94.71525        0.44551       48.31675
H         95.13115        2.52171       49.59552
H         93.51185        3.16926       49.12842
H         93.69617        2.15658       50.62190
N         92.48766        0.62372       48.58822
C         92.19298       -0.61932       47.88039
C         90.71688       -0.72963       47.49593
O         89.84788       -0.54995       48.33729
C         92.63849       -1.83068       48.72003
C         92.45130       -3.11290       47.96454
O         93.02470       -3.28687       46.90073
O         91.65125       -4.07522       48.45973
H         91.71125        1.20092       48.94686
H         92.78399       -0.62162       46.94681
H         92.06344       -1.86138       49.66982
H         93.71682       -1.75041       48.96993
N         90.38847       -1.06050       46.21088
C         89.03937       -1.12845       45.65779
C         88.67001       -2.56059       45.22385
O         87.48833       -2.79752       45.01379
C         88.99775       -0.15134       44.42617
C         89.34507        1.31524       44.80609
C         87.69759       -0.19939       43.60303
C         88.27439        2.04997       45.61336
H         91.15292       -1.25513       45.55950
H         88.30009       -0.82429       46.42997
H         89.80620       -0.48647       43.73548
H         89.51734        1.89578       43.87250
H         90.29117        1.33723       45.38143
H         86.81622        0.05955       44.22342
H         87.76684        0.50913       42.74915
H         87.54248       -1.20327       43.16017
H         88.63278        3.07679       45.83986
H         87.33838        2.14897       45.02554
H         88.06393        1.52915       46.56811
N         89.60199       -3.54147       44.99829
C         89.26284       -4.81051       44.32907
C         90.11932       -6.01574       44.76484
O         89.85416       -7.10544       44.27643
C         89.34161       -4.58574       42.79246
C         90.71609       -4.16958       42.35074
O         91.73026       -4.27985       43.22172
O         90.89705       -3.68070       41.24755
H         90.59004       -3.28207       45.08001
H         88.20952       -5.07744       44.56458
H         88.64487       -3.75299       42.55077
H         89.01523       -5.47761       42.21625
N         91.14497       -5.91769       45.66578
C         91.93781       -7.05541       46.13279
C         92.86475       -7.70373       45.10326
O         93.50682       -8.68346       45.45276
H         91.34674       -5.01231       46.09886
H         91.24432       -7.82229       46.53883
H         92.58596       -6.71270       46.96947
N         92.99378       -7.22961       43.83296
C         93.81564       -7.83694       42.78103
C         95.33440       -7.80388       43.00529
O         96.04000       -8.28178       42.12595
C         93.46752       -7.19531       41.40972
C         93.72834       -5.71615       41.29227
O         94.19838       -5.00210       42.32807
O         93.47191       -5.14553       40.24557
H         92.41927       -6.43108       43.57176
H         93.52274       -8.90610       42.69439
H         92.38573       -7.35733       41.21363
H         94.03638       -7.71452       40.60857
N         95.92713       -7.30519       44.12957
C         97.37446       -7.31443       44.31512
C         98.10955       -6.27149       43.48788
O         99.32960       -6.25580       43.54262
H         95.34924       -6.96051       44.90322
H         97.76545       -8.33301       44.09428
H         97.61179       -7.09359       45.37797
N         97.44181       -5.34093       42.74425
C         98.09175       -4.27754       41.98523
C         97.64725       -2.91437       42.50213
O         96.74757       -2.83324       43.32379
C         97.67780       -4.35528       40.49722
C         97.93360       -5.71293       39.83437
C         97.54152       -5.67130       38.37497
N         96.26930       -5.39427       37.99857
O         98.38693       -5.88895       37.52045
H         96.42402       -5.35919       42.73296
H         99.19664       -4.35841       42.07494
H         98.22414       -3.57299       39.92564
H         96.59081       -4.13721       40.42718
H         97.33867       -6.50162       40.34239
H         99.01172       -5.96733       39.92367
H         95.53655       -5.20879       38.69618
H         96.01273       -5.36037       37.00064
N         98.22745       -1.78816       41.99887
C         97.76007       -0.43117       42.25940
C         97.41406        0.20659       40.92275
O         98.19754        0.14470       39.98728
C         98.81369        0.38854       43.05108
C         98.44850        1.88645       43.10753
C         98.89966       -0.14144       44.49375
H         99.02515       -1.89708       41.35549
H         96.83905       -0.43314       42.88490
H         99.80590        0.30039       42.55822
H         98.44337        2.32885       42.08914
H         97.44835        2.03722       43.56658
H         99.20084        2.44741       43.70100
H         97.91609       -0.02663       45.00410
H         99.18020       -1.21403       44.51141
H         99.65278        0.43059       45.07560
N         96.24833        0.89571       40.80950
C         95.77361        1.56562       39.61259
C         95.86060        3.06606       39.83314
O         96.11903        3.50697       40.94385
C         94.32273        1.08221       39.35623
C         93.60330        1.70177       38.18689
N         94.05581        1.54199       36.92408
O         92.57337        2.33035       38.38282
H         95.68457        1.01115       41.65009
H         96.42859        1.31342       38.75066
H         93.72311        1.28304       40.27312
H         94.33920       -0.01483       39.19533
H         94.91157        1.00240       36.73428
H         93.53875        1.95417       36.13365
N         95.74115        3.91306       38.77749
C         95.89762        5.35978       38.89964
C         94.82271        5.98497       39.77091
O         95.10931        6.97806       40.42526
C         96.04911        6.03139       37.51737
C         94.94127        5.72683       36.53491
C         93.76556        6.49137       36.50433
C         95.09873        4.67549       35.61142
C         92.76535        6.20544       35.56589
C         94.09407        4.38069       34.69093
C         92.92622        5.14462       34.65987
O         91.97190        4.85267       33.75370
H         95.60521        3.49394       37.85179
H         96.86727        5.54351       39.41690
H         96.99526        5.63340       37.08768
H         96.20443        7.12835       37.60816
H         93.63082        7.31546       37.19320
H         95.99764        4.07035       35.61185
H         91.86748        6.80898       35.54143
H         94.22775        3.55756       33.99953
H         91.15137        5.36036       33.68685
N         93.58109        5.43664       39.87475
C         92.58461        5.91309       40.82969
C         93.05020        5.62222       42.24888
O         93.08736        6.53852       43.05783
C         91.20515        5.27924       40.54765
C         90.63598        5.82480       39.22295
C         89.26167        5.29566       38.93846
O         88.25467        5.52665       39.80281
O         89.04171        4.68396       37.90544
H         93.34664        4.63238       39.27515
H         92.44634        7.01286       40.72456
H         90.50512        5.56970       41.36246
H         91.27460        4.16853       40.52646
H         91.31525        5.57088       38.38084
H         90.56311        6.93304       39.28723
N         93.45811        4.37165       42.61051
C         93.93308        4.03661       43.95868
C         95.19024        4.79191       44.36914
O         95.55527        4.69599       45.53366
C         94.27748        2.54062       44.03872
C         93.05195        1.65819       43.85416
C         93.46175        0.24159       43.67008
O         93.98952       -0.12131       42.63780
O         93.16515       -0.66987       44.58481
H         93.42785        3.63403       41.88981
H         93.12584        4.27897       44.68619
H         94.72587        2.27829       45.02512
H         95.03451        2.33656       43.25877
H         92.44778        1.93103       42.96486
H         92.41818        1.76805       44.75651
N         95.93090        5.51370       43.48223
C         97.15171        6.20356       43.84170
H         97.99170        5.78698       43.24737
H         97.04268        7.28279       43.61054
H         97.40080        6.09733       44.91845
H         95.65045        5.56319       42.49701
Ca        93.17342       -2.70070       43.73228
O         95.68157       -1.68162       45.82090
H         96.47322       -1.76736       46.40850
H         95.27039       -0.82304       46.08729
O         95.55291       -4.81169       46.28057
H         95.90750       -5.60401       46.75591
H         95.65216       -4.07662       46.93397
O         94.03621       -2.10398       40.56909
H         94.77499       -2.64622       40.94037
H         93.23206       -2.40340       41.06049

Ca 1.0



