%chk=holoCaM.loop1.water2.frame157.chk
%nprocshared=20
%mem=10GB
%nosave
#b3lyp/svp scf=(tight,noincore,xqc) Test 
#IOP(5/87=12) Density=Current Pop=(MK,readradii) iop(6/33=2) iop(6/42=6)

holoCaM.loop1.water2.frame157 

   0  1 
C         90.52276       63.04124      -11.89365
C         91.55496       61.96407      -11.82934
O         91.67355       61.20360      -12.77993
H         89.79486       62.90214      -11.06893
H         91.01556       64.03087      -11.79837
H         89.98323       63.00117      -12.86465
N         92.36685       61.85266      -10.73901
C         93.40508       60.83759      -10.66225
C         92.74256       59.46540      -10.57330
O         92.13796       59.14707       -9.55891
C         94.38960       61.16641       -9.51928
C         95.64311       60.35530       -9.59325
O         95.67956       59.24801      -10.34592
O         96.61878       60.68307       -8.94417
H         92.26921       62.54051       -9.97591
H         93.99717       60.92332      -11.60339
H         93.92412       61.09570       -8.51228
H         94.70491       62.22069       -9.67405
N         92.68737       58.68252      -11.68877
C         91.79560       57.52887      -11.82873
C         92.31384       56.28450      -11.10647
O         91.52609       55.39286      -10.83239
C         91.55249       57.26367      -13.34531
C         90.12332       56.87677      -13.76569
C         89.62071       55.49074      -13.36072
C         88.16273       55.25654      -13.81303
N         87.98598       55.35832      -15.26497
H         93.13632       59.05997      -12.53068
H         90.82691       57.85281      -11.38591
H         92.33608       56.60027      -13.77388
H         91.65837       58.23912      -13.87055
H         90.11605       56.92824      -14.87497
H         89.42288       57.64944      -13.37845
H         89.62524       55.39951      -12.25957
H         90.28382       54.71186      -13.79547
H         87.49403       55.99256      -13.31247
H         87.85630       54.24025      -13.48206
H         88.12938       56.34092      -15.59037
H         88.64392       54.71417      -15.75982
H         87.00389       55.09306      -15.50606
N         93.63758       56.14013      -10.79932
C         94.19446       54.97444      -10.10144
C         94.81885       55.36027       -8.74965
O         95.27373       54.46802       -8.04776
C         95.13684       54.14150      -11.02775
C         96.33500       54.86367      -11.57561
O         96.47333       56.16096      -11.30628
O         97.15123       54.28546      -12.27448
H         94.27699       56.89437      -11.07736
H         93.37704       54.26848       -9.83831
H         94.54413       53.77252      -11.89303
H         95.49460       53.25661      -10.45848
N         94.76894       56.64101       -8.26757
C         95.08536       57.00122       -6.89094
C         96.53924       56.89294       -6.49902
O         96.83696       56.15445       -5.57017
H         94.35927       57.38838       -8.84233
H         94.46484       56.37468       -6.21202
H         94.78880       58.05878       -6.72042
N         97.49096       57.65531       -7.11005
C         98.88764       57.69378       -6.66729
C         99.36618       59.10644       -6.29382
O        100.50406       59.22561       -5.86269
C         99.79554       56.99698       -7.70755
C         99.82970       57.60996       -9.07666
O         99.15247       58.73076       -9.35080
O        100.48355       57.07874       -9.95907
H         97.20132       58.23299       -7.91173
H         99.00367       57.09470       -5.73810
H         99.43374       55.95189       -7.81820
H        100.83685       56.96095       -7.32184
N         98.57415       60.21556       -6.42366
C         98.99166       61.56585       -6.05196
C         99.34525       62.42642       -7.25358
O         99.60518       63.60767       -7.06623
H         97.62821       60.12516       -6.80889
H         99.88541       61.54959       -5.39223
H         98.16718       62.03461       -5.47174
N         99.46527       61.88738       -8.49844
C         99.92665       62.60241       -9.68132
C         98.95920       62.42477      -10.84086
O         98.35169       61.37093      -10.97749
C        101.33770       62.10903      -10.08565
C        102.40072       62.50068       -9.04764
O        101.35477       60.72155      -10.31742
H         99.29390       60.88819       -8.60750
H        100.01763       63.69243       -9.47461
H        101.62948       62.61496      -11.03199
H        101.37092       60.25772       -9.43952
H        102.42544       63.60478       -8.92781
H        102.18692       62.03846       -8.06072
H        103.40113       62.16212       -9.39053
N         98.81513       63.42318      -11.75279
C         97.90600       63.38696      -12.89280
C         98.72300       63.40744      -14.17795
O         99.58645       64.26030      -14.33998
C         96.90168       64.57436      -12.77492
C         95.99339       64.33303      -11.53552
C         96.04858       64.73421      -14.04828
C         94.99840       65.45499      -11.24163
H         99.38198       64.27809      -11.63146
H         97.30007       62.45262      -12.89860
H         97.47969       65.51611      -12.64461
H         96.62677       64.21617      -10.63049
H         95.42104       63.38920      -11.67824
H         95.41376       63.84429      -14.20590
H         95.39404       65.62578      -13.98159
H         96.68959       64.89386      -14.93909
H         94.26620       65.57715      -12.06490
H         94.42350       65.19844      -10.32612
H         95.53630       66.41032      -11.07085
N         98.45195       62.49991      -15.15896
C         99.14898       62.40507      -16.43711
C         98.27552       62.97623      -17.54281
O         97.20764       63.49895      -17.25364
C         99.50607       60.91737      -16.73380
C        100.46298       60.32160      -15.69437
O         98.33900       60.13803      -16.86572
H         97.65385       61.86754      -15.01945
H        100.08609       63.00429      -16.42438
H        100.04889       60.84687      -17.69798
H         98.08391       59.77847      -15.97753
H        100.69237       59.26588      -15.95735
H        101.41195       60.89651      -15.67047
H         99.99769       60.34503      -14.69169
N         98.67855       62.92678      -18.84223
C         97.87032       63.40829      -19.96000
C         96.54528       62.66364      -20.05459
O         95.52555       63.31955      -20.20079
C         98.62522       63.32035      -21.31091
C         99.86452       64.23178      -21.34445
O         98.94934       61.99304      -21.64995
H         99.60388       62.52283      -19.04253
H         97.64705       64.48939      -19.80514
H         97.94495       63.70704      -22.10193
H         99.75503       61.72458      -21.13806
H        100.61703       63.92732      -20.58817
H        100.33555       64.18903      -22.34867
H         99.56828       65.28396      -21.14257
N         96.47573       61.29927      -19.99310
C         95.20138       60.57907      -20.10068
C         94.23547       60.87104      -18.94392
O         93.08977       60.44863      -19.02951
C         95.43744       59.05253      -20.21930
C         95.88812       58.41892      -18.89307
C         96.21098       56.93138      -19.02996
C         96.54303       56.33769      -17.65195
N         96.89938       54.92474      -17.75869
H         97.35299       60.76661      -19.90084
H         94.73165       60.91231      -21.05295
H         96.19101       58.87009      -21.01644
H         94.48996       58.55773      -20.52837
H         95.05949       58.52177      -18.16271
H         96.78552       58.94176      -18.50702
H         97.07820       56.80987      -19.71497
H         95.33623       56.39261      -19.45551
H         95.65800       56.44309      -16.98368
H         97.39131       56.89466      -17.19456
H         97.09392       54.54968      -16.80212
H         96.11054       54.38400      -18.18180
H         97.75834       54.81814      -18.34564
N         94.63057       61.55212      -17.82669
C         93.76808       61.84675      -16.68479
C         93.50329       63.34889      -16.56305
O         92.71352       63.72828      -15.71063
C         94.43260       61.33550      -15.37985
C         94.78704       59.84073      -15.41500
C         95.54367       59.39494      -14.19015
O         96.57723       59.95320      -13.86267
O         95.13210       58.32298      -13.49160
H         95.60145       61.86743      -17.76166
H         92.78023       61.35362      -16.81573
H         93.77628       61.54587      -14.50762
H         95.37834       61.89588      -15.24945
H         95.45613       59.66126      -16.27524
H         93.86444       59.23218      -15.53398
N         94.11993       64.26089      -17.37362
C         93.88878       65.68896      -17.32477
H         93.12279       65.97150      -16.57539
H         94.84120       66.20572      -17.08021
H         93.55018       66.03383      -18.32568
H         94.80283       63.95369      -18.06678
Ca        97.41044       58.15296      -11.23894
O         98.60156       57.01306      -14.07394
H         98.54631       56.28448      -13.40655
H         99.52540       56.95348      -14.42475
O        100.20661       58.97451      -12.40032
H        100.93713       58.66127      -12.99025
H        100.25288       59.96151      -12.45154

Ca 1.0



