%chk=holoCaM-CaMKII.loop3.water1.frame394.chk
%nprocshared=20
%mem=10GB
%nosave
#b3lyp/svp scf=(tight,noincore,xqc) Test 
#IOP(5/87=12) Density=Current Pop=(MK,readradii) iop(6/33=2) iop(6/42=6)

holoCaM-CaMKII.loop3.water1.frame394 

   0  1 
C         64.49420       89.73572       87.08796
C         65.02314       90.33638       88.35425
O         64.23174       90.68392       89.21988
H         63.82860       90.46288       86.58088
H         65.31887       89.46100       86.39661
H         63.92101       88.81662       87.33209
N         66.36407       90.46065       88.54915
C         66.92140       90.96832       89.79060
C         66.57946       92.45171       89.95285
O         66.93362       93.24106       89.08815
C         68.44509       90.73859       89.81342
C         68.96851       90.83239       91.21010
O         69.63625       89.93008       91.68086
O         68.63971       91.88730       91.96073
H         67.00465       90.12676       87.81218
H         66.48981       90.36119       90.61468
H         68.94581       91.47552       89.14980
H         68.69300       89.71947       89.44231
N         65.86852       92.89071       91.02921
C         65.41943       94.27380       91.20447
C         66.58063       95.26236       91.28808
O         66.58437       96.22114       90.52920
C         64.51358       94.37132       92.45299
C         63.76452       95.71235       92.54928
C         62.77682       95.70595       93.72698
C         61.96968       97.01078       93.78838
N         61.01711       96.98762       94.89910
H         65.58671       92.19172       91.73150
H         64.77994       94.53393       90.33080
H         65.11084       94.19587       93.37298
H         63.74079       93.57413       92.37177
H         63.18857       95.86738       91.61007
H         64.48733       96.54813       92.66731
H         63.33512       95.56798       94.67866
H         62.06747       94.85710       93.60478
H         61.41052       97.14693       92.83508
H         62.66138       97.87286       93.91495
H         61.52452       96.88166       95.80729
H         60.48344       97.88724       94.91297
H         60.34124       96.19836       94.77863
N         67.60567       95.08173       92.17278
C         68.73348       96.01017       92.32219
C         70.01803       95.47590       91.68244
O         71.04268       96.13564       91.78928
C         68.88726       96.42966       93.80890
C         69.06606       95.26723       94.74448
O         70.13158       94.45987       94.63681
O         68.18363       94.98692       95.54022
H         67.60300       94.22461       92.74475
H         68.53430       96.95309       91.76681
H         67.95524       96.96432       94.09661
H         69.73351       97.13930       93.93088
N         70.00653       94.36961       90.88269
C         71.12433       93.95349       90.04966
C         72.33462       93.37682       90.75300
O         73.25704       93.01715       90.03326
H         69.12254       93.87274       90.72830
H         71.44302       94.81589       89.42330
H         70.76375       93.16270       89.35634
N         72.44693       93.24028       92.10911
C         73.66681       92.68823       92.70620
C         73.89072       91.21455       92.35374
O         74.99320       90.73030       92.56753
C         73.73397       92.93130       94.23011
C         72.71705       92.18968       95.06133
N         72.68714       92.37079       96.40040
O         71.92578       91.42100       94.54326
H         71.68979       93.57448       92.71833
H         74.51381       93.26991       92.27535
H         73.60842       94.02140       94.41013
H         74.74312       92.63956       94.59340
H         73.34985       93.01248       96.85895
H         72.00098       91.86809       96.98065
N         72.90264       90.44867       91.80232
C         73.10325       89.09596       91.30572
C         72.23876       88.04496       91.97638
O         72.13116       86.96881       91.40600
H         71.96656       90.85307       91.67039
H         74.16251       88.76772       91.36238
H         72.82774       89.11944       90.22849
N         71.63302       88.24139       93.18681
C         70.76738       87.23745       93.81288
C         69.41559       87.82695       94.17845
O         69.26382       89.03958       94.17248
C         71.42825       86.56379       95.03577
C         71.84626       87.50474       96.14340
C         71.15051       87.51652       97.36395
C         72.96143       88.34639       95.98564
C         71.55471       88.36266       98.40115
C         73.36905       89.18532       97.02560
C         72.66806       89.19900       98.23515
O         73.07591       90.01328       99.22935
H         71.79485       89.12407       93.68359
H         70.56088       86.42495       93.08279
H         72.32304       85.98773       94.71541
H         70.70415       85.81860       95.43174
H         70.29134       86.87370       97.51374
H         73.53158       88.34195       95.06516
H         71.00557       88.36409       99.33392
H         74.23462       89.82196       96.89234
H         72.62323       90.04861      100.08407
N         68.36157       86.99887       94.45328
C         67.01084       87.49934       94.69854
C         66.41664       86.98788       95.99948
O         66.93301       86.06690       96.61347
C         66.06116       87.14699       93.50721
C         65.99186       85.61708       93.24243
C         66.48539       87.92771       92.25419
C         64.94733       85.22010       92.19773
H         68.51114       85.98098       94.41527
H         67.03629       88.60276       94.79618
H         65.03883       87.49341       93.76573
H         65.71761       85.09762       94.18536
H         66.98034       85.23707       92.90861
H         65.76234       87.78827       91.42566
H         66.49869       89.01138       92.48824
H         67.49526       87.62163       91.91113
H         63.93756       85.55746       92.51391
H         65.18476       85.64331       91.20117
H         64.93484       84.11387       92.09519
N         65.27347       87.57972       96.44646
C         64.46938       87.14939       97.58135
C         63.04563       86.89387       97.09096
O         62.79730       87.01579       95.90267
C         64.49192       88.25318       98.65355
O         63.95922       89.44597       98.14537
H         64.92828       88.39887       95.92928
H         64.87649       86.21911       98.03340
H         65.54546       88.42058       98.97064
H         63.90322       87.92887       99.54010
H         63.96489       90.09503       98.89579
N         62.04333       86.56564       97.95219
C         60.65124       86.43855       97.52034
C         60.13955       87.75411       96.95056
O         59.58169       87.75502       95.86177
C         59.76448       86.01875       98.69553
H         62.26950       86.43610       98.94902
H         60.56646       85.63859       96.75024
H         58.71349       85.90287       98.35155
H         60.10834       85.04088       99.09403
H         59.79587       86.77316       99.50962
N         60.33019       88.92026       97.63250
C         59.86423       90.22938       97.17729
C         60.32274       90.54108       95.76611
O         59.48947       90.87396       94.93494
C         60.36875       91.32369       98.12785
H         60.85408       88.87308       98.52056
H         58.75159       90.24818       97.19840
H         61.48043       91.34819       98.14681
H         59.99774       92.31923       97.80249
H         60.00233       91.13364       99.15891
N         61.63469       90.43289       95.42213
C         62.13912       90.71730       94.07978
C         61.42105       89.84812       93.06116
O         60.82184       90.38494       92.13932
C         63.66507       90.48920       94.01039
C         64.43241       91.43923       94.95029
C         65.91013       91.18471       94.92618
O         66.55137       90.85086       96.06243
O         66.54181       91.29378       93.88977
H         62.28804       90.10601       96.14777
H         61.94745       91.78576       93.83136
H         64.01367       90.66138       92.96776
H         63.88258       89.43744       94.27231
H         64.09170       91.31950       95.99767
H         64.23680       92.48778       94.65301
N         61.39884       88.49551       93.19583
C         60.66889       87.63424       92.29352
H         59.59179       87.90875       92.29759
H         61.07532       87.72478       91.26528
H         60.76032       86.57737       92.62614
H         61.88944       88.06289       93.98465
Ca        69.47241       92.45813       93.93658
O         69.35049       91.09879       97.12068
H         69.75504       91.30679       97.99994
H         69.70239       90.20235       96.89019

Ca 1.0



