%chk=holoCaM.loop1.water2.frame8.chk
%nprocshared=20
%mem=10GB
%nosave
#b3lyp/svp scf=(tight,noincore,xqc) Test 
#IOP(5/87=12) Density=Current Pop=(MK,readradii) iop(6/33=2) iop(6/42=6)

holoCaM.loop1.water2.frame8 

   0  1 
C         93.74170       37.93087       23.62792
C         95.24018       37.98906       23.58682
O         95.83601       38.98691       23.96497
H         93.30186       38.89183       23.95974
H         93.38108       37.71568       22.59716
H         93.40424       37.10769       24.29318
N         95.90167       36.92988       23.06320
C         97.31251       36.91148       22.71418
C         97.46678       37.47769       21.30052
O         96.62433       37.21921       20.45282
C         97.78134       35.45116       22.80486
C         99.11925       35.21042       22.20264
O        100.23529       35.74579       22.72867
O         99.19231       34.49217       21.22104
H         95.31827       36.16018       22.69964
H         97.91318       37.51297       23.43064
H         97.06182       34.82332       22.23984
H         97.78707       35.11129       23.86383
N         98.53428       38.26971       20.99318
C         98.75111       38.99111       19.75535
C         99.97954       38.48519       18.98823
O        100.21289       38.98153       17.89587
C         98.96570       40.49536       20.10219
C         97.88000       41.14021       20.99543
C         96.46112       40.88920       20.48045
C         95.40123       41.59146       21.33445
N         94.06448       41.29848       20.81738
H         99.25201       38.40656       21.68219
H         97.86763       38.87318       19.09354
H         99.05307       41.06953       19.15642
H         99.92947       40.61573       20.65324
H         98.08204       42.23506       21.04226
H         97.95320       40.74313       22.03209
H         96.25126       39.80323       20.52333
H         96.38176       41.23281       19.42878
H         95.57283       42.69013       21.31598
H         95.47148       41.24334       22.38970
H         93.97596       41.65876       19.83924
H         93.89260       40.26604       20.82597
H         93.34867       41.76538       21.41847
N        100.83137       37.54596       19.50159
C        102.05542       37.08683       18.82891
C        102.17856       35.55200       18.78055
O        103.21991       35.06191       18.36603
C        103.33299       37.78825       19.38547
C        103.56703       37.69147       20.85713
O        102.53475       37.39574       21.64586
O        104.66903       37.92078       21.32202
H        100.62951       37.16470       20.43248
H        102.04937       37.40211       17.76505
H        103.31635       38.86871       19.12956
H        104.21135       37.34434       18.87210
N        101.11735       34.73809       19.04934
C        101.09382       33.30672       18.75213
C        101.64033       32.36437       19.81447
O        101.54628       31.16470       19.59494
H        100.21705       35.18397       19.25515
H        101.58260       33.11909       17.77161
H        100.02780       33.01446       18.63440
N        102.19379       32.78843       20.98284
C        102.58620       31.85588       22.05006
C        101.37181       31.30422       22.80157
O        101.35763       30.13102       23.14406
C        103.65522       32.46247       22.98979
C        103.36260       33.84643       23.46949
O        104.10710       34.76760       23.17276
O        102.28806       34.08418       24.22299
H        102.29072       33.80194       21.13793
H        103.11723       30.98051       21.61383
H        104.61073       32.51597       22.42670
H        103.81472       31.79267       23.86408
N        100.30345       32.09621       23.05783
C         99.11212       31.69796       23.79476
C         99.30563       31.91781       25.27901
O         98.87738       31.10844       26.08783
H        100.34425       33.05828       22.71846
H         98.73829       30.69111       23.51127
H         98.30884       32.41341       23.50525
N         99.89278       33.07763       25.67686
C        100.01691       33.58155       27.04304
C        100.04039       35.11565       26.97899
O        100.36979       35.67955       25.94367
C        101.23592       33.00668       27.83359
C        101.25690       31.47794       27.94967
O        102.45446       33.43976       27.29669
H        100.12434       33.71033       24.90959
H         99.07953       33.30823       27.57572
H        101.17874       33.40855       28.86933
H        102.50561       33.09768       26.37066
H        102.12714       31.16323       28.56708
H        100.32973       31.10730       28.43160
H        101.37273       31.01119       26.94874
N         99.58749       35.86082       28.01685
C         99.31618       37.29272       27.89756
C        100.28567       38.08698       28.76737
O        100.38524       37.83226       29.95774
C         97.80691       37.53513       28.22480
C         96.92284       36.86470       27.12765
C         97.47695       39.03199       28.35797
C         95.41630       36.98915       27.36785
H         99.33202       35.38619       28.89577
H         99.45930       37.64865       26.85084
H         97.58379       37.06754       29.20887
H         97.15845       35.78008       27.08384
H         97.14937       37.30179       26.12854
H         96.42354       39.17310       28.67535
H         98.09353       39.49263       29.15600
H         97.64578       39.56634       27.40241
H         95.15105       36.59484       28.37074
H         95.08184       38.04335       27.27917
H         94.86827       36.40482       26.59778
N        100.98210       39.12717       28.21252
C        101.84345       40.06305       28.93799
C        101.07994       41.34110       29.14580
O         99.95786       41.43290       28.70995
C        103.12654       40.42630       28.12855
C        104.11105       39.26189       27.98671
O        102.77802       41.00520       26.89565
H        100.76167       39.37035       27.24428
H        102.10381       39.66206       29.93859
H        103.71455       41.20798       28.64979
H        102.83776       40.31554       26.20227
H        104.91177       39.53755       27.26496
H        104.58704       39.07128       28.97194
H        103.60157       38.34450       27.63583
N        101.63628       42.37709       29.81232
C        100.98319       43.66625       30.02457
C        100.71869       44.40232       28.71248
O         99.60230       44.86345       28.51984
C        101.84190       44.52505       30.97188
C        101.94033       43.86163       32.35728
O        103.12447       44.70133       30.42747
H        102.57604       42.22651       30.20222
H        100.00340       43.50923       30.53172
H        101.33943       45.51224       31.09000
H        103.54126       45.45677       30.91586
H        100.92726       43.75805       32.80187
H        102.39792       42.85109       32.30977
H        102.56314       44.48338       33.02972
N        101.68180       44.50743       27.74860
C        101.47719       45.14351       26.43953
C        100.19260       44.63238       25.80308
O         99.36867       45.41340       25.34895
C        102.68801       44.81026       25.52508
C        102.61858       45.47334       24.13789
C        103.83216       45.06829       23.28471
C        103.59989       45.35233       21.79455
N        104.72133       44.85821       20.99483
H        102.58502       44.04221       27.92824
H        101.41447       46.24710       26.55931
H        102.72698       43.70503       25.37748
H        103.63117       45.11711       26.02434
H        102.57712       46.58199       24.22559
H        101.69262       45.12111       23.63745
H        103.99259       43.97360       23.37977
H        104.74534       45.59055       23.65145
H        103.45413       46.44046       21.61667
H        102.67707       44.81800       21.47301
H        104.86461       43.83633       21.17138
H        104.50787       44.99024       19.97995
H        105.59367       45.38108       21.23604
N         99.97805       43.29725       25.77011
C         98.82004       42.63389       25.18712
C         97.53527       42.94979       25.96422
O         96.56133       43.38869       25.37055
C         99.11853       41.11626       25.16820
C        100.35428       40.80624       24.28922
C        100.68622       39.34672       24.32310
O        101.57180       38.83070       25.17911
O        100.06936       38.58039       23.63581
H        100.70880       42.71097       26.19983
H         98.69273       42.95072       24.12853
H         98.24594       40.55243       24.77823
H         99.31732       40.77591       26.20473
H        101.26109       41.37246       24.58610
H        100.14484       41.11324       23.24162
N         97.47128       42.71969       27.30102
C         96.31803       42.91872       28.14973
H         95.45703       42.32940       27.77556
H         96.55847       42.55017       29.17526
H         96.06459       43.99531       28.22611
H         98.29891       42.37422       27.75195
Ca       102.06201       36.67916       23.66694
O        103.91486       36.10318       26.28334
H        104.59561       35.86043       26.95918
H        103.10355       35.61330       26.55840
O        104.64811       37.96915       24.20166
H        104.88262       38.68101       23.55804
H        105.51237       37.72065       24.61259

Ca 1.0



