%chk=holoCaM-CaMKII.loop1.water2.frame473.chk
%nprocshared=20
%mem=10GB
%nosave
#b3lyp/svp scf=(tight,noincore,xqc) Test 
#IOP(5/87=12) Density=Current Pop=(MK,readradii) iop(6/33=2) iop(6/42=6)

holoCaM-CaMKII.loop1.water2.frame473 

   0  1 
C         77.06631       60.11812       75.51137
C         77.77352       61.14787       76.32425
O         77.38587       62.30205       76.28369
H         76.22850       60.58534       74.94927
H         77.77635       59.65788       74.79666
H         76.65100       59.34394       76.18968
N         78.80334       60.80826       77.13996
C         79.40139       61.80748       78.00115
C         80.21469       62.80372       77.17135
O         81.14224       62.38836       76.49154
C         80.21929       61.14496       79.12961
C         80.39096       62.10257       80.26489
O         79.88128       63.33467       80.14406
O         80.92126       61.75337       81.30168
H         79.08948       59.82002       77.21240
H         78.54463       62.31410       78.50619
H         81.19141       60.75412       78.76083
H         79.62736       60.30302       79.54850
N         79.89602       64.13127       77.16555
C         80.52873       65.13440       76.30986
C         81.43520       66.10734       77.06448
O         82.10862       66.87342       76.38776
C         79.43539       65.83677       75.45951
C         79.04336       64.94600       74.25943
C         77.94343       65.54277       73.35701
C         76.50112       65.31561       73.84825
N         76.10681       63.90785       73.73249
H         79.13571       64.44318       77.77493
H         81.24924       64.64764       75.61637
H         79.83323       66.78105       75.02616
H         78.56592       66.10435       76.10099
H         78.78578       63.91583       74.57169
H         79.96276       64.87562       73.63784
H         78.01107       65.07246       72.35208
H         78.13854       66.62857       73.22302
H         75.82129       65.90231       73.19218
H         76.37041       65.67776       74.89055
H         75.10335       63.79981       73.99996
H         76.22764       63.57003       72.75009
H         76.67902       63.31036       74.35348
N         81.60072       66.08437       78.42083
C         82.72383       66.75494       79.08973
C         83.57351       65.75598       79.89470
O         84.50607       66.19205       80.55594
C         82.31258       68.03461       79.87183
C         81.30315       67.89732       80.96605
O         80.99883       68.86593       81.64157
O         80.68636       66.73946       81.17634
H         80.98519       65.48999       78.99158
H         83.43193       67.16136       78.33347
H         81.90666       68.77403       79.14785
H         83.23368       68.47407       80.31465
N         83.38926       64.39813       79.80270
C         84.29048       63.42016       80.40522
C         84.25097       63.32812       81.92035
O         85.06032       62.58605       82.45957
H         82.65783       64.01763       79.18751
H         85.32891       63.66147       80.08382
H         84.05157       62.40896       80.00988
N         83.38066       64.04881       82.68303
C         83.45760       64.07301       84.14635
C         83.06571       62.76595       84.85493
O         83.26093       62.70507       86.06079
C         82.64342       65.26965       84.70189
C         81.16555       65.19884       84.45513
O         80.36729       66.20615       84.85109
O         80.67745       64.24066       83.89519
H         82.71624       64.67753       82.21032
H         84.51830       64.28505       84.40648
H         83.01852       66.19812       84.22071
H         82.80224       65.35413       85.79661
N         82.48546       61.70780       84.21214
C         82.08912       60.46929       84.88450
C         80.58054       60.26172       84.94144
O         80.16142       59.23996       85.46655
H         82.29770       61.77804       83.20818
H         82.44824       60.45070       85.93622
H         82.56198       59.61283       84.35857
N         79.70584       61.20957       84.49852
C         78.25373       61.12943       84.64200
C         77.54768       61.55285       83.35863
O         78.16235       62.16311       82.49566
C         77.79341       62.03795       85.81214
C         78.21510       61.49491       87.18527
O         78.26579       63.35000       85.64094
H         80.08583       62.06969       84.10948
H         77.94735       60.08325       84.86094
H         76.68295       62.07613       85.83082
H         79.22933       63.36901       85.88471
H         79.31949       61.42084       87.27036
H         77.84638       62.17605       87.98240
H         77.76978       60.49119       87.34727
N         76.23376       61.23104       83.17074
C         75.46982       61.57891       81.97328
C         74.20756       62.31931       82.40801
O         73.51249       61.82265       83.28437
C         75.09201       60.30166       81.15769
C         76.30451       59.34507       80.99142
C         74.54247       60.72436       79.77482
C         75.95337       58.03306       80.28222
H         75.76165       60.66819       83.89534
H         76.08253       62.21519       81.29736
H         74.30846       59.74322       81.71604
H         76.67327       59.05785       81.99924
H         77.13292       59.85002       80.44858
H         73.68195       61.41384       79.87737
H         75.33636       61.23860       79.18727
H         74.18513       59.85548       79.18876
H         76.83837       57.36272       80.28290
H         75.12326       57.51878       80.81302
H         75.66553       58.20293       79.22559
N         73.81616       63.47735       81.80507
C         72.60796       64.21253       82.17731
C         71.50279       63.94352       81.17304
O         71.73941       63.26021       80.18678
C         72.89956       65.73835       82.23740
C         74.05832       66.07202       83.16746
O         73.21509       66.21002       80.95471
H         74.35594       63.81857       81.00602
H         72.24355       63.86830       83.17014
H         71.98300       66.25406       82.60480
H         73.11271       67.19736       80.96868
H         74.98283       65.60866       82.76901
H         74.20837       67.17358       83.19407
H         73.86266       65.70747       84.19522
N         70.25562       64.46466       81.35883
C         69.19819       64.32553       80.36004
C         69.60107       65.01081       79.06373
O         69.15432       64.58372       78.00809
C         67.84901       64.90169       80.85612
C         67.28889       64.07792       82.02729
O         68.01732       66.24896       81.22548
H         70.06658       64.99754       82.22116
H         69.04788       63.24256       80.14715
H         67.11507       64.83634       80.02004
H         67.15706       66.56756       81.60470
H         66.29147       64.46989       82.32120
H         67.15859       63.01812       81.72004
H         67.95978       64.12096       82.90928
N         70.41990       66.10214       79.07242
C         70.84783       66.78350       77.85812
C         71.76672       65.87429       77.06124
O         71.51423       65.61659       75.89309
C         71.56566       68.10952       78.21958
C         71.66682       69.05282       77.00737
C         72.17684       70.45594       77.37756
C         73.67444       70.50316       77.70880
N         74.08062       71.86919       78.04574
H         70.73386       66.47720       79.97981
H         69.93791       67.05185       77.27675
H         72.56004       67.91766       78.67628
H         70.94038       68.63458       78.97426
H         70.63370       69.19113       76.61971
H         72.28413       68.61310       76.19469
H         71.58052       70.85184       78.22965
H         72.00580       71.12288       76.50490
H         74.24972       70.15941       76.82010
H         73.91084       69.83350       78.56258
H         73.58975       72.18313       78.91465
H         75.11223       71.89315       78.21280
H         73.85185       72.52256       77.26100
N         72.86066       65.33989       77.67481
C         73.84158       64.47392       77.02893
C         73.23764       63.13812       76.59851
O         73.90873       62.40464       75.88611
C         75.03346       64.21892       77.99095
C         75.73646       65.52804       78.42071
C         76.81671       65.32291       79.44643
O         77.93406       65.76569       79.25066
O         76.54166       64.74593       80.62889
H         72.99641       65.57591       78.66189
H         74.22125       65.00129       76.12678
H         75.77488       63.55676       77.51309
H         74.64228       63.68694       78.87710
H         75.01710       66.22476       78.88638
H         76.16084       66.02475       77.52184
N         71.99478       62.74232       77.00471
C         71.36790       61.50214       76.59672
H         70.38945       61.73176       76.12362
H         71.98189       60.93302       75.86862
H         71.19035       60.86681       77.48971
H         71.45260       63.32831       77.64915
Ca        79.59841       64.90141       81.63491
O         77.72277       67.86198       82.15426
H         78.66075       67.59511       82.31059
H         77.47629       68.34795       82.98015
O         77.18722       65.60029       84.07255
H         76.62338       66.40691       84.16252
H         77.69935       65.59207       84.91586

Ca 1.0



