%chk=holoCaM-CaMKII.loop1.water2.frame463.chk
%nprocshared=20
%mem=10GB
%nosave
#b3lyp/svp scf=(tight,noincore,xqc) Test 
#IOP(5/87=12) Density=Current Pop=(MK,readradii) iop(6/33=2) iop(6/42=6)

holoCaM-CaMKII.loop1.water2.frame463 

   0  1 
C         74.28346       84.10905       40.97166
C         75.13911       85.24482       40.49911
O         74.75833       85.93123       39.56299
H         73.32868       84.07871       40.40486
H         74.81949       83.14763       40.83464
H         74.04766       84.24686       42.04891
N         76.30259       85.53241       41.14175
C         77.12555       86.67955       40.78916
C         77.82884       86.43584       39.44476
O         78.72759       85.61207       39.37450
C         78.07900       86.98256       41.97024
C         78.98570       88.12849       41.69365
O         78.48508       89.25687       41.16233
O         80.18706       87.97094       41.79604
H         76.56216       84.95702       41.95868
H         76.45201       87.56514       40.70914
H         78.69664       86.08660       42.19724
H         77.46431       87.22023       42.86553
N         77.39309       87.07062       38.31717
C         77.90746       86.84262       36.96215
C         79.23720       87.52469       36.68740
O         79.98830       87.03952       35.85386
C         76.89088       87.36938       35.90719
C         75.58036       86.55882       35.86485
C         75.78260       85.13823       35.30027
C         74.49443       84.30115       35.32232
N         74.10639       83.93415       36.68768
H         76.56863       87.66430       38.41265
H         78.04710       85.75999       36.80687
H         77.33711       87.34820       34.88860
H         76.65072       88.43531       36.13429
H         74.86764       87.07712       35.18531
H         75.13365       86.53632       36.87712
H         76.55473       84.56689       35.85165
H         76.13036       85.23646       34.24782
H         74.68952       83.36667       34.75207
H         73.66379       84.84203       34.81649
H         74.91882       83.51199       37.19506
H         73.75509       84.76515       37.21307
H         73.34224       83.22229       36.64482
N         79.53003       88.71442       37.26401
C         80.68291       89.55620       36.92390
C         81.73397       89.57607       38.01730
O         82.72906       90.27034       37.85728
C         80.21899       90.97212       36.46720
C         79.12513       91.61090       37.27991
O         78.93835       91.16880       38.53525
O         78.23354       92.20464       36.69313
H         78.87603       89.02780       37.98545
H         81.24511       89.13313       36.06289
H         79.81654       90.84572       35.43946
H         81.07170       91.67811       36.39686
N         81.65468       88.74420       39.08984
C         82.74568       88.55237       40.02755
C         83.12164       89.81728       40.74508
O         84.29489       90.15527       40.80225
H         80.82150       88.15390       39.22168
H         83.62701       88.12212       39.50702
H         82.42155       87.81087       40.78706
N         82.15360       90.53194       41.36560
C         82.39704       91.67808       42.23232
C         82.06071       91.33131       43.68214
O         82.32802       92.15350       44.54708
C         81.63086       92.92727       41.72014
C         80.15427       92.74394       41.52455
O         79.54717       91.61764       41.90581
O         79.49381       93.62594       41.00288
H         81.19416       90.19057       41.24854
H         83.47886       91.93677       42.22228
H         82.04962       93.20403       40.73181
H         81.78012       93.78054       42.41791
N         81.52748       90.11942       44.03607
C         81.22961       89.74066       45.40797
C         79.87319       90.22832       45.87891
O         79.58209       90.08936       47.05740
H         81.33415       89.41252       43.32229
H         82.04228       90.10380       46.07085
H         81.21405       88.63122       45.48239
N         78.99199       90.80175       45.01430
C         77.67271       91.30992       45.37197
C         76.60469       90.78190       44.41767
O         76.88076       90.56492       43.24726
C         77.66313       92.86965       45.44406
C         78.48368       93.36873       46.63582
O         78.10139       93.52338       44.27828
H         79.26956       90.87795       44.03817
H         77.39473       90.96145       46.39043
H         76.61375       93.18450       45.61728
H         78.63415       92.90674       43.72874
H         78.35761       94.46674       46.74421
H         78.11706       92.88958       47.56912
H         79.56318       93.14057       46.51086
N         75.33392       90.58882       44.87066
C         74.22197       90.08617       44.06260
C         73.20443       91.21291       43.89903
O         72.79912       91.82731       44.87629
C         73.63521       88.80521       44.73008
C         74.66066       87.64206       44.62033
C         72.29491       88.35122       44.11075
C         74.30876       86.45902       45.51889
H         75.13267       90.82173       45.85636
H         74.55946       89.78764       43.04976
H         73.44926       89.06177       45.79628
H         75.66824       87.99308       44.92191
H         74.73657       87.29325       43.56164
H         72.43995       87.94427       43.08728
H         71.83317       87.56307       44.74160
H         71.56084       89.17895       44.06496
H         75.11492       85.69774       45.46501
H         74.22048       86.81153       46.56793
H         73.35972       85.97616       45.21039
N         72.73375       91.49822       42.65128
C         71.77449       92.53762       42.30822
C         70.39120       91.93280       42.17393
O         70.26284       90.72102       42.15506
C         72.17112       93.21894       40.94910
C         73.48793       93.96657       41.03180
O         72.28883       92.24964       39.94238
H         73.00108       90.86917       41.90157
H         71.71897       93.28326       43.12841
H         71.37735       93.93913       40.66079
H         72.74559       92.63079       39.14444
H         73.46399       94.70755       41.85193
H         74.28931       93.21439       41.16226
H         73.67372       94.49851       40.07077
N         69.29731       92.74152       42.08796
C         67.94386       92.24884       41.81992
C         67.88036       91.58949       40.44471
O         67.15063       90.62086       40.28601
C         66.88840       93.37964       41.94841
C         66.62310       93.72951       43.42853
O         67.30366       94.51112       41.21880
H         69.44850       93.75508       42.19398
H         67.67542       91.46348       42.56320
H         65.92643       93.00791       41.53438
H         66.74926       95.28495       41.50131
H         65.77120       94.44099       43.49652
H         66.32929       92.81805       43.99495
H         67.51083       94.18553       43.91258
N         68.67702       92.01853       39.42738
C         68.81190       91.32347       38.14775
C         69.36704       89.91998       38.34503
O         68.76550       88.96591       37.87524
C         69.74900       92.14261       37.23412
C         70.09102       91.44671       35.90850
C         70.90792       92.39940       35.02924
C         71.10677       91.85456       33.61114
N         72.02815       92.70769       32.85720
H         69.25104       92.86088       39.58739
H         67.82383       91.25427       37.63935
H         70.69906       92.37962       37.75936
H         69.22834       93.10123       37.01421
H         69.15221       91.15313       35.39702
H         70.69528       90.52746       36.10083
H         71.89509       92.55084       35.52041
H         70.39372       93.38072       34.94748
H         70.12308       91.80963       33.08627
H         71.52196       90.82612       33.66272
H         72.88194       92.91170       33.42666
H         72.32726       92.20877       31.98896
H         71.56274       93.60693       32.59492
N         70.53877       89.73515       39.00552
C         71.20589       88.44685       39.17345
C         70.30589       87.47007       39.89683
O         70.28036       86.30931       39.51419
C         72.57351       88.62421       39.87989
C         73.52469       89.40693       38.94452
C         74.82017       89.84985       39.54712
O         75.84471       89.70843       38.91279
O         74.85776       90.57425       40.67268
H         70.96566       90.56198       39.41441
H         71.42369       88.02434       38.16886
H         73.02785       87.64179       40.11622
H         72.40812       89.14248       40.84040
H         73.03583       90.32595       38.58886
H         73.73949       88.78498       38.04710
N         69.43937       87.89617       40.85586
C         68.40687       87.05748       41.41492
H         67.48003       87.20517       40.82060
H         68.69371       85.98609       41.40379
H         68.20023       87.37065       42.45944
H         69.39070       88.89302       41.07779
Ca        77.57669       91.13986       40.31167
O         76.19046       93.17289       38.80287
H         75.66382       93.57317       38.07018
H         76.65807       92.42708       38.36245
O         76.49525       93.79747       42.01383
H         75.76191       94.38255       42.32288
H         77.27277       94.40439       42.00663

Ca 1.0



