%chk=holoCaM.loop2.water4.frame402.chk
%nprocshared=20
%mem=10GB
%nosave
#b3lyp/svp scf=(tight,noincore,xqc) Test 
#IOP(5/87=12) Density=Current Pop=(MK,readradii) iop(6/33=2) iop(6/42=6)

holoCaM.loop2.water4.frame402 

   -2  1 
C        116.63296       85.24811       -8.81401
C        117.42725       86.43983       -8.37729
O        116.94597       87.17540       -7.52656
H        115.67047       85.58946       -9.25013
H        117.17919       84.65213       -9.57363
H        116.42432       84.60398       -7.93412
N        118.64953       86.70607       -8.92504
C        119.45005       87.85476       -8.53287
C        119.60426       88.79761       -9.71292
O        120.13051       88.39979      -10.74290
C        120.83173       87.40674       -8.01932
C        121.57905       88.54630       -7.37566
O        122.71349       88.37346       -6.97385
O        120.98253       89.74195       -7.19311
H        119.02127       86.07982       -9.65584
H        118.94651       88.38732       -7.69687
H        121.42419       86.98402       -8.86111
H        120.71357       86.61473       -7.24875
N        119.15628       90.07857       -9.61822
C        119.25354       91.05904      -10.69370
C        120.68560       91.46710      -11.04606
O        120.83486       92.21928      -11.99938
C        118.46895       92.32016      -10.29928
H        118.67711       90.34833       -8.75108
H        118.77209       90.62243      -11.59588
H        118.46334       93.06002      -11.12679
H        117.41572       92.05536      -10.06348
H        118.92380       92.79278       -9.40103
N        121.77652       91.05653      -10.33077
C        123.14412       91.48575      -10.62951
C        124.06466       90.31586      -10.96893
O        125.22727       90.56150      -11.26017
C        123.69874       92.26663       -9.42430
C        122.88332       93.49852       -9.14203
O        122.79291       94.38087       -9.98044
O        122.25372       93.63994       -7.96158
H        121.64700       90.44901       -9.51326
H        123.16327       92.15945      -11.51382
H        124.74631       92.58422       -9.61765
H        123.69370       91.60428       -8.53561
N        123.62635       89.02535      -10.98010
C        124.46160       87.89304      -11.34363
C        125.62856       87.68188      -10.40533
O        126.68871       87.29274      -10.87436
H        122.64912       88.81235      -10.74574
H        124.82195       87.99966      -12.39103
H        123.83726       86.97457      -11.30459
N        125.49585       87.88152       -9.06296
C        126.55491       87.61498       -8.09317
C        126.09452       86.58492       -7.05488
O        126.86331       86.28633       -6.15170
C        126.95144       88.94267       -7.41711
C        128.16769       88.83724       -6.52826
N        129.38036       88.53142       -7.04676
O        128.05912       89.05064       -5.32975
H        124.60125       88.24962       -8.70825
H        127.45444       87.21211       -8.60716
H        126.09141       89.27956       -6.81723
H        127.17022       89.71150       -8.19040
H        129.49774       88.36995       -8.05748
H        130.20984       88.47139       -6.43737
N        124.87260       85.97016       -7.12882
C        124.43536       84.96352       -6.17286
C        124.02759       85.50852       -4.80893
O        123.73114       84.69348       -3.94742
H        124.24769       86.15006       -7.92662
H        125.24270       84.20586       -6.06416
H        123.54602       84.43847       -6.58362
N        123.95518       86.84597       -4.53520
C        123.59161       87.40167       -3.22584
C        122.30895       88.23226       -3.32621
O        122.23402       89.09860       -4.18524
C        124.76605       88.24468       -2.69035
C        126.02114       87.38070       -2.50646
O        125.04652       89.29591       -3.57630
H        124.19194       87.51627       -5.27739
H        123.41306       86.58995       -2.48650
H        124.46131       88.65394       -1.69929
H        125.57787       89.96499       -3.07182
H        126.84485       87.99469       -2.08747
H        125.81315       86.54246       -1.80798
H        126.36011       86.96133       -3.47778
N        121.24419       87.99011       -2.49463
C        119.91989       88.60541       -2.65833
C        119.39855       89.36410       -1.41620
O        119.22800       88.77730       -0.35807
C        118.89417       87.51771       -3.12255
C        118.82957       86.28437       -2.17536
C        119.21642       87.09868       -4.57047
C        117.77050       85.25992       -2.57203
H        121.35532       87.27488       -1.76203
H        119.95478       89.35328       -3.47820
H        117.88895       87.98611       -3.14305
H        118.57682       86.61589       -1.14997
H        119.80441       85.75588       -2.14504
H        119.23936       87.99285       -5.22873
H        120.19957       86.58741       -4.62946
H        118.43299       86.43199       -4.98235
H        116.78375       85.74823       -2.61993
H        117.99605       84.79347       -3.55113
H        117.73595       84.45017       -1.81291
N        119.04650       90.68429       -1.53074
C        118.34025       91.49791       -0.52321
C        116.90601       90.99028       -0.30863
O        116.54947       89.98640       -0.89238
C        118.26873       92.96959       -1.01935
C        119.61497       93.62726       -1.17331
O        119.67707       94.77683       -1.57849
O        120.75068       92.98138       -0.84651
H        119.25868       91.14559       -2.41975
H        118.89021       91.47856        0.44254
H        117.70296       93.59878       -0.30315
H        117.73841       92.99735       -1.99810
N        116.02550       91.64876        0.51481
C        114.63790       91.22230        0.74457
C        113.76409       91.21546       -0.51345
O        113.14013       90.18443       -0.73514
C        113.95396       92.06758        1.84668
C        112.57392       91.52807        2.18894
C        112.42004       90.21070        2.66542
C        111.42812       92.32961        2.03112
C        111.15153       89.70572        2.96451
C        110.15993       91.82038        2.33861
C        110.02215       90.50933        2.80178
H        116.35868       92.47742        1.02610
H        114.68493       90.18452        1.13761
H        113.88945       93.12727        1.52268
H        114.57371       92.03580        2.76793
H        113.27869       89.56729        2.80266
H        111.51221       93.34633        1.66930
H        111.04494       88.68943        3.32255
H        109.28132       92.44073        2.21611
H        109.04099       90.11524        3.03562
N        113.61492       92.27148       -1.37901
C        112.77763       92.21155       -2.57281
C        113.24445       91.10813       -3.50774
O        112.41271       90.34911       -3.98298
C        112.86481       93.62737       -3.16253
C        114.21541       94.12179       -2.69538
C        114.28664       93.55663       -1.27559
H        111.70626       92.02053       -2.33356
H        112.65720       93.70971       -4.25200
H        112.12048       94.25882       -2.62639
H        114.99087       93.64120       -3.32276
H        114.37291       95.21897       -2.76732
H        115.35018       93.49665       -0.98909
H        113.71526       94.19426       -0.56719
N        114.56693       90.91558       -3.75691
C        115.08070       89.83303       -4.58907
C        114.69581       88.47420       -4.00312
O        114.39445       87.56302       -4.76101
C        116.60817       89.99491       -4.77529
C        116.92519       91.32691       -5.49382
C        118.38963       91.54100       -5.72766
O        119.24517       91.59353       -4.69764
O        118.80634       91.74184       -6.85302
H        115.24257       91.53259       -3.29287
H        114.62714       89.90675       -5.60241
H        116.99293       89.15281       -5.38987
H        117.10959       89.98300       -3.78421
H        116.57331       92.18809       -4.89188
H        116.39347       91.34860       -6.46996
N        114.57816       88.30552       -2.65787
C        114.07119       87.10291       -2.03274
H        113.03396       86.90663       -2.37436
H        114.70295       86.23220       -2.27327
H        114.05426       87.23432       -0.92737
H        114.81150       89.08477       -2.04487
Ca       121.89362       91.47063       -6.07537
O        120.65454       94.24749       -5.16420
H        120.70801       94.10883       -4.18542
H        121.37024       94.90201       -5.36171
O        122.62472       91.87375       -3.19818
H        122.92125       92.68858       -2.72107
H        121.96052       91.45452       -2.59595
O        124.77566       91.22024       -6.18305
H        124.24172       90.47858       -6.56255
H        124.58687       91.17903       -5.21401
O        123.94750       93.88145       -5.21149
H        124.89471       93.63397       -5.06550
H        123.96693       94.47312       -6.00436

Ca 1.0



