%chk=holoCaM-CaMKII.loop2.water1.frame125.chk
%nprocshared=20
%mem=10GB
%nosave
#b3lyp/svp scf=(tight,noincore,xqc) Test 
#IOP(5/87=12) Density=Current Pop=(MK,readradii) iop(6/33=2) iop(6/42=6)

holoCaM-CaMKII.loop2.water1.frame125 

   -2  1 
C         23.78830       74.87463       73.03583
C         23.07507       75.48126       71.86600
O         23.72212       76.01525       70.97624
H         24.88625       75.01328       72.94697
H         23.44282       75.36941       73.96920
H         23.55945       73.79057       73.09351
N         21.71461       75.45200       71.82273
C         20.92514       76.07338       70.76382
C         21.28133       77.54846       70.68618
O         21.08101       78.26290       71.65798
C         19.42478       75.78912       71.04175
C         18.39759       76.47238       70.17685
O         17.45561       77.01265       70.72743
O         18.43270       76.45226       68.83037
H         21.22414       74.98291       72.60087
H         21.19534       75.59063       69.80742
H         19.19674       76.07578       72.09371
H         19.27339       74.69221       70.95616
N         21.88414       78.04693       69.56322
C         22.39003       79.41131       69.44804
C         21.61414       80.23404       68.43721
O         21.87003       81.42752       68.35126
C         23.87834       79.37716       69.08585
H         22.02163       77.42038       68.75828
H         22.28232       79.93488       70.42211
H         24.44387       78.80721       69.85291
H         24.02711       78.88908       68.09769
H         24.29256       80.40724       69.03923
N         20.61181       79.69245       67.68919
C         19.70133       80.48657       66.87614
C         18.29666       80.45193       67.47932
O         17.41878       81.12012       66.95221
C         19.75521       80.02684       65.40566
C         19.43836       78.57092       65.23522
O         20.26474       77.80966       64.75727
O         18.23939       78.10119       65.60957
H         20.42130       78.68205       67.74660
H         19.99812       81.55801       66.88467
H         20.77863       80.22019       65.01535
H         19.04193       80.62559       64.79889
N         18.02302       79.74571       68.61904
C         16.75151       79.78815       69.31201
C         15.60004       79.28525       68.48222
O         14.62724       80.01653       68.36492
H         18.75304       79.18447       69.07724
H         16.55609       80.82526       69.65782
H         16.81736       79.17482       70.22623
N         15.61975       78.05178       67.89018
C         14.48207       77.52560       67.13706
C         13.94321       76.21673       67.71036
O         12.88786       75.79200       67.26165
C         14.83448       77.39471       65.64106
C         15.66516       76.17705       65.29977
N         15.23091       75.30274       64.36128
O         16.72910       75.97523       65.86229
H         16.47256       77.48682       67.96021
H         13.65295       78.26284       67.19619
H         15.36047       78.32014       65.31857
H         13.88782       77.34025       65.06192
H         14.34071       75.45414       63.86540
H         15.79235       74.47805       64.11082
N         14.60866       75.51227       68.67823
C         14.09458       74.29241       69.28180
C         14.93022       73.06202       68.98131
O         14.58585       72.01442       69.51137
H         15.51704       75.84037       69.02900
H         13.06080       74.07386       68.93763
H         14.05247       74.44746       70.38101
N         15.98589       73.07267       68.11107
C         16.70828       71.85695       67.72125
C         18.20556       71.98640       67.95940
O         18.65694       73.03804       68.38744
C         16.43197       71.56026       66.22703
C         14.93462       71.35840       65.96294
O         16.91640       72.61608       65.43976
H         16.24651       73.95379       67.64387
H         16.35787       70.98378       68.31381
H         16.95700       70.61875       65.94872
H         16.98560       72.27483       64.50997
H         14.76987       71.11618       64.89211
H         14.54869       70.51772       66.57781
H         14.35932       72.27774       66.20315
N         19.03846       70.93537       67.69196
C         20.49307       70.99437       67.80271
C         21.10345       70.66991       66.44547
O         20.99312       69.53772       65.99259
C         20.99323       70.00644       68.90479
C         20.48263       70.46932       70.29383
C         22.52984       69.87904       68.90155
C         20.85884       69.52840       71.44221
H         18.62453       70.04367       67.37928
H         20.81965       72.01835       68.09005
H         20.58083       68.99595       68.68400
H         19.37413       70.53111       70.26982
H         20.88244       71.48252       70.52110
H         22.88938       69.49824       67.92797
H         23.01013       70.85424       69.11800
H         22.87051       69.12620       69.63741
H         20.46947       68.50689       71.24838
H         21.95652       69.48398       71.59329
H         20.41759       69.90732       72.38739
N         21.77755       71.62650       65.74479
C         22.49166       71.35682       64.49863
C         23.76453       70.56339       64.78497
O         24.08032       70.33602       65.94285
C         22.86110       72.68380       63.79873
C         21.64615       73.50557       63.47553
O         20.78755       73.06552       62.72757
O         21.50836       74.73932       63.99772
H         21.78009       72.58601       66.11047
H         21.82658       70.78032       63.81716
H         23.38354       72.48038       62.84125
H         23.53801       73.27374       64.45626
N         24.55545       70.10897       63.77098
C         25.78126       69.35115       64.01070
C         26.84953       70.13918       64.76850
O         27.39484       69.56131       65.69793
C         26.36284       68.76024       62.71306
C         27.56247       67.87734       63.01089
C         28.81452       68.16692       62.44340
C         27.44629       66.76722       63.87420
C         29.92549       67.36821       62.73639
C         28.56128       65.97948       64.17138
C         29.79996       66.27888       63.60250
H         24.25807       70.27828       62.79799
H         25.49563       68.47727       64.63543
H         26.63735       69.58173       62.01788
H         25.58388       68.13947       62.22032
H         28.93297       69.01152       61.77705
H         26.49942       66.51133       64.33101
H         30.88654       67.59660       62.29522
H         28.46434       65.13751       64.84554
H         30.66196       65.66638       63.83355
N         27.23659       71.42188       64.47158
C         28.22591       72.14467       65.25884
C         27.71922       72.36514       66.67569
O         28.50358       72.24616       67.60651
C         28.45587       73.43350       64.45598
C         27.12232       73.67157       63.79241
C         26.70397       72.25160       63.40422
H         29.20545       71.61895       65.31266
H         28.88237       74.28667       65.02692
H         29.15917       73.19061       63.62692
H         26.43464       74.06159       64.57017
H         27.11917       74.40174       62.95551
H         25.60669       72.25614       63.33719
H         27.15758       71.92698       62.44442
N         26.40765       72.63804       66.91868
C         25.86997       72.84612       68.25896
C         25.89804       71.57264       69.09986
O         25.73014       71.66412       70.30801
C         24.43525       73.38456       68.15230
C         24.41860       74.74192       67.41270
C         23.03446       75.24258       67.18399
O         22.85317       76.32670       66.65432
O         21.98758       74.49380       67.54953
H         25.76361       72.69396       66.11890
H         26.49362       73.61576       68.76574
H         23.99596       73.51978       69.16641
H         23.81898       72.63847       67.60202
H         24.89361       74.67324       66.41527
H         24.97633       75.48401       68.02209
N         26.08918       70.34977       68.53322
C         26.18728       69.12572       69.29585
H         27.07087       69.17165       69.96615
H         25.26902       68.96416       69.89451
H         26.31755       68.26439       68.60378
H         26.15626       70.27332       67.51757
Ca        19.95567       75.33880       67.67996
O         18.52174       75.11365       63.60953
H         18.60548       74.23948       64.06654
H         18.66243       74.90770       62.65161

Ca 1.0



