%chk=holoCaM.loop2.water2.frame142.chk
%nprocshared=20
%mem=10GB
%nosave
#b3lyp/svp scf=(tight,noincore,xqc) Test 
#IOP(5/87=12) Density=Current Pop=(MK,readradii) iop(6/33=2) iop(6/42=6)

holoCaM.loop2.water2.frame142 

   -2  1 
C         13.31108       81.44977      -10.13539
C         14.02133       80.20370       -9.67535
O         14.70640       80.24273       -8.66498
H         12.55025       81.74685       -9.38290
H         14.03653       82.27776      -10.27096
H         12.78927       81.28604      -11.10375
N         13.85595       79.04001      -10.35728
C         14.44426       77.76319       -9.96222
C         15.92811       77.68416      -10.29319
O         16.30626       77.99800      -11.41354
C         13.73036       76.64155      -10.72039
C         14.22872       75.27645      -10.35197
O         14.65902       74.60800      -11.27449
O         14.21341       74.73850       -9.08556
H         13.20984       79.05074      -11.16292
H         14.24694       77.57474       -8.88649
H         13.87933       76.80746      -11.81427
H         12.64602       76.66818      -10.56083
N         16.80741       77.17327       -9.38522
C         18.21719       76.92174       -9.66330
C         18.62605       75.46015       -9.37067
O         19.81308       75.17503       -9.44834
C         19.03944       77.91706       -8.83840
H         16.46205       76.93619       -8.44771
H         18.45811       77.12998      -10.72813
H         20.12046       77.82202       -9.07374
H         18.72851       78.95242       -9.10582
H         18.88100       77.77122       -7.74951
N         17.71977       74.49435       -9.00418
C         18.07870       73.12468       -8.59634
C         17.25830       71.99975       -9.28193
O         17.50017       70.83931       -8.97996
C         17.95270       73.03907       -7.05980
C         16.62015       73.49273       -6.54937
O         15.60724       72.93405       -6.91051
O         16.53735       74.52976       -5.69632
H         16.73192       74.75667       -8.91916
H         19.14641       72.91636       -8.82785
H         18.71989       73.70212       -6.60712
H         18.14966       72.00194       -6.71477
N         16.30431       72.25819      -10.21955
C         15.51921       71.25993      -10.95747
C         14.48701       70.44805      -10.17212
O         13.84422       69.60593      -10.78322
H         16.19432       73.22785      -10.49319
H         16.21791       70.55692      -11.45884
H         14.94820       71.78766      -11.75271
N         14.27898       70.60968       -8.83871
C         13.40885       69.74363       -8.03190
C         11.89288       69.95141       -8.22105
O         11.13167       69.27829       -7.53948
C         13.82999       69.85608       -6.55277
C         13.56031       71.17902       -5.91518
N         14.01637       71.40779       -4.67403
O         12.95787       72.06007       -6.50647
H         14.86064       71.29681       -8.35799
H         13.64267       68.68966       -8.29466
H         14.92827       69.67987       -6.50157
H         13.33181       69.07470       -5.94164
H         14.55997       70.70634       -4.15164
H         13.83586       72.31302       -4.26026
N         11.37755       70.81955       -9.13947
C          9.94901       70.97250       -9.41443
C          9.14454       71.77475       -8.39750
O          7.97005       71.99151       -8.66137
H         12.02297       71.32797       -9.75477
H          9.48780       69.97367       -9.57661
H          9.85189       71.53607      -10.36795
N          9.68259       72.26716       -7.24511
C          8.95392       73.12801       -6.30430
C          9.70463       74.42915       -6.05683
O         10.84061       74.56130       -6.48200
C          8.72232       72.39757       -4.94261
C          7.79982       71.19416       -5.11339
O          9.90748       71.97858       -4.29779
H         10.65337       72.03264       -7.03113
H          7.96192       73.40499       -6.72469
H          8.20282       73.09712       -4.25396
H         10.70256       72.18994       -4.84652
H          8.25521       70.43789       -5.78520
H          7.61284       70.72859       -4.12204
H          6.82434       71.52155       -5.53304
N          9.13626       75.41523       -5.30335
C          9.86241       76.59465       -4.84882
C         10.44333       76.31510       -3.48954
O          9.83134       75.65655       -2.65972
C          8.99551       77.88985       -4.90719
C          8.92140       78.36101       -6.38035
C          9.55761       79.02047       -4.00986
C          7.96920       79.52825       -6.61833
H          8.19187       75.26110       -4.92043
H         10.74960       76.76564       -5.48715
H          7.98364       77.64870       -4.51572
H          8.58657       77.51711       -7.01972
H          9.93747       78.67184       -6.71514
H          9.59119       78.69711       -2.94770
H         10.57610       79.31882       -4.32734
H          8.90494       79.91422       -4.01918
H          7.97171       79.77994       -7.69967
H          6.94194       79.24176       -6.31462
H          8.28534       80.43649       -6.06727
N         11.67050       76.83086       -3.22213
C         12.41696       76.62795       -2.00525
C         12.54259       77.95315       -1.28543
O         12.08031       78.94859       -1.81597
C         13.79834       76.07568       -2.40284
C         13.65595       74.81406       -3.21507
O         13.05573       74.80535       -4.45279
O         13.90146       73.77159       -2.63383
H         12.12688       77.41230       -3.93723
H         11.88948       75.91185       -1.33503
H         14.37119       75.86646       -1.47076
H         14.37856       76.81021       -3.00174
N         13.11939       78.05419       -0.05713
C         13.27487       79.34188        0.61555
C         14.21859       80.26545       -0.15225
O         13.82315       81.40421       -0.36016
C         13.66805       79.16885        2.09986
C         13.90197       80.48696        2.81766
C         12.93370       81.51212        2.81814
C         15.10958       80.69598        3.50794
C         13.18040       82.71877        3.48359
C         15.34422       81.89731        4.18326
C         14.38290       82.90956        4.16786
H         13.43370       77.19367        0.41695
H         12.27653       79.83536        0.65112
H         14.56480       78.52929        2.19934
H         12.83282       78.63726        2.60601
H         11.99266       81.39057        2.29897
H         15.86858       79.92455        3.53373
H         12.43831       83.50720        3.47113
H         16.27322       82.04295        4.71917
H         14.56976       83.84079        4.68771
N         15.45577       79.89827       -0.62536
C         16.34189       80.82122       -1.33095
C         15.78597       81.33066       -2.65428
O         16.36679       82.23733       -3.23314
C         17.60667       79.99735       -1.59573
C         17.56834       78.97806       -0.47184
C         16.09049       78.61471       -0.44261
H         16.54281       81.66255       -0.63067
H         17.47624       79.41561       -2.53845
H         18.53754       80.59808       -1.67867
H         18.24948       78.11218       -0.61041
H         17.81605       79.49579        0.48163
H         15.83971       77.97630       -1.31909
H         15.83369       78.09340        0.49453
N         14.66803       80.77383       -3.19426
C         14.04899       81.19480       -4.44124
C         12.85111       82.07449       -4.13207
O         12.55342       82.96527       -4.91417
C         13.62377       79.94904       -5.22940
C         14.82449       79.02707       -5.48665
C         14.42013       77.74012       -6.10361
O         13.12680       77.46152       -6.33735
O         15.27788       76.91826       -6.36556
H         14.22067       79.98758       -2.70686
H         14.76552       81.77935       -5.06006
H         13.15044       80.23310       -6.19614
H         12.87114       79.40309       -4.62679
H         15.32970       78.75969       -4.53462
H         15.54953       79.53835       -6.15203
N         12.16363       81.92115       -2.96410
C         11.09016       82.77177       -2.51353
H         10.18225       82.15518       -2.34855
H         11.38889       83.22320       -1.54186
H         10.86669       83.58415       -3.23130
H         12.42149       81.17489       -2.32036
Ca        13.67017       74.84156       -6.76722
O         11.72979       73.74613       -8.97259
H         10.90980       74.28910       -9.06380
H         12.04118       73.61943       -9.90220
O         11.45908       76.73693       -8.53918
H         11.28347       77.56479       -9.05025
H         11.14256       76.94757       -7.63465

Ca 1.0



