%chk=holoCaM.loop3.water2.frame173.chk
%nprocshared=20
%mem=10GB
%nosave
#b3lyp/svp scf=(tight,noincore,xqc) Test 
#IOP(5/87=12) Density=Current Pop=(MK,readradii) iop(6/33=2) iop(6/42=6)

holoCaM.loop3.water2.frame173 

   0  1 
C         19.81903       88.58400      -11.30283
C         20.36831       88.51806       -9.90865
O         21.52288       88.85737       -9.69389
H         18.94401       89.26629      -11.32826
H         20.58577       88.94421      -12.01979
H         19.49155       87.56811      -11.61501
N         19.58017       88.03923       -8.91077
C         20.01077       87.84611       -7.53490
C         20.09403       86.34801       -7.31830
O         19.32480       85.76979       -6.56333
C         19.02863       88.58239       -6.60386
C         19.32542       88.36530       -5.15234
O         20.40058       88.69142       -4.67804
O         18.38516       87.81340       -4.36497
H         18.62461       87.73184       -9.15342
H         21.02778       88.26137       -7.35482
H         17.99249       88.23742       -6.80733
H         19.07878       89.67116       -6.81140
N         21.03517       85.65819       -8.01953
C         21.18123       84.20734       -8.00758
C         21.44682       83.70407       -6.60005
O         20.68335       82.87671       -6.12206
C         22.30118       83.77072       -8.98334
C         21.97165       84.15317      -10.44477
C         23.07765       83.70753      -11.41130
C         22.82506       84.15290      -12.86544
N         21.61165       83.56420      -13.43602
H         21.67509       86.21240       -8.60750
H         20.23437       83.74657       -8.36959
H         22.41145       82.66554       -8.92903
H         23.26624       84.23519       -8.68263
H         21.85829       85.25208      -10.54592
H         21.01045       83.67432      -10.72583
H         23.18810       82.60238      -11.37302
H         24.03717       84.16617      -11.08601
H         23.69792       83.83618      -13.47835
H         22.76023       85.26292      -12.91689
H         21.64925       82.52139      -13.36938
H         20.76030       83.92572      -12.95070
H         21.54636       83.83498      -14.44407
N         22.48210       84.19502       -5.86059
C         22.73770       83.79785       -4.47277
C         21.48558       83.94317       -3.61599
O         21.10180       82.95908       -2.99876
C         23.95498       84.53791       -3.85538
C         23.80182       86.02897       -3.79563
O         23.86651       86.62641       -2.73501
O         23.62682       86.69531       -4.94422
H         23.09141       84.89104       -6.30985
H         23.01621       82.72015       -4.47003
H         24.85542       84.31482       -4.46745
H         24.13574       84.14389       -2.83079
N         20.76460       85.10352       -3.57444
C         19.51615       85.22846       -2.82872
C         19.55442       86.29225       -1.75063
O         18.56223       86.42102       -1.04676
H         21.07747       85.91170       -4.13210
H         19.25863       84.27363       -2.32222
H         18.69259       85.44656       -3.53832
N         20.66039       87.05641       -1.51433
C         20.76610       87.94536       -0.35871
C         19.79610       89.12514       -0.37448
O         19.68205       89.78648        0.64763
C         22.23098       88.39840       -0.15598
C         22.74568       89.38460       -1.18119
N         23.32902       90.53628       -0.77878
O         22.67182       89.13460       -2.37405
H         21.48778       86.92056       -2.10484
H         20.51602       87.31845        0.52612
H         22.87504       87.49265       -0.18503
H         22.33664       88.83961        0.85790
H         23.42841       90.75794        0.22249
H         23.70723       91.20146       -1.46704
N         19.08231       89.46116       -1.48807
C         18.11209       90.54626       -1.53653
C         18.57502       91.70946       -2.39148
O         17.81099       92.65425       -2.53341
H         19.23696       88.94028       -2.35644
H         17.90997       90.95302       -0.52222
H         17.15446       90.14086       -1.92881
N         19.82945       91.75452       -2.92628
C         20.37966       92.92009       -3.60778
C         20.96365       92.56079       -4.95824
O         21.62639       91.53955       -5.08041
C         21.52173       93.49301       -2.75244
C         21.04479       94.10076       -1.45695
C         21.42951       93.55154       -0.22469
C         20.23915       95.25186       -1.47056
C         21.02400       94.14290        0.97351
C         19.83887       95.84772       -0.27100
C         20.23436       95.29605        0.95629
O         19.86964       95.86762        2.12126
H         20.47357       90.96595       -2.76946
H         19.62204       93.72228       -3.74671
H         22.05534       94.29298       -3.31170
H         22.24917       92.67840       -2.55909
H         22.04685       92.67069       -0.18662
H         19.93699       95.69953       -2.40907
H         21.33402       93.70897        1.91583
H         19.22992       96.74227       -0.29731
H         19.34273       96.67862        2.15311
N         20.88336       93.46203       -5.97766
C         21.57379       93.32068       -7.25276
C         22.60578       94.42909       -7.36569
O         22.25217       95.59805       -7.28470
C         20.56166       93.34789       -8.43264
C         19.65995       92.09036       -8.34690
C         21.29812       93.40778       -9.79096
C         18.56061       92.02846       -9.40615
H         20.35757       94.33671       -5.82184
H         22.10983       92.35120       -7.30864
H         19.93593       94.26428       -8.34637
H         19.15958       92.07068       -7.35564
H         20.28954       91.17747       -8.43661
H         20.58319       93.47946      -10.63373
H         21.92827       94.31936       -9.86044
H         21.94633       92.51688       -9.93139
H         17.90047       92.91705       -9.32511
H         18.98160       91.96725      -10.42959
H         17.95315       91.11299       -9.24463
N         23.90640       94.11067       -7.61544
C         24.96712       95.08519       -7.82366
C         25.41818       95.07475       -9.27542
O         24.95355       94.25509      -10.05693
C         26.14925       94.76409       -6.88915
O         26.68354       93.50116       -7.20265
H         24.14795       93.11952       -7.71206
H         24.59624       96.10901       -7.60121
H         25.78818       94.79566       -5.83463
H         26.95362       95.52262       -6.99409
H         26.86150       93.02823       -6.34883
N         26.32410       95.99421       -9.70639
C         26.84135       96.04259      -11.06916
C         27.63755       94.79684      -11.39145
O         27.48321       94.26115      -12.47939
C         27.74273       97.26630      -11.25212
H         26.65952       96.69758       -9.02956
H         26.00150       96.15661      -11.79199
H         28.11098       97.31083      -12.30041
H         27.16270       98.19205      -11.05070
H         28.61391       97.22688      -10.56463
N         28.51566       94.28422      -10.48174
C         29.34250       93.11095      -10.73689
C         28.50123       91.91052      -11.13289
O         28.68499       91.39936      -12.22903
C         30.19133       92.78461       -9.49729
H         28.59796       94.75475       -9.56678
H         30.03781       93.34669      -11.57272
H         30.83942       91.90379       -9.68922
H         30.83938       93.65003       -9.24210
H         29.54834       92.56812       -8.61653
N         27.56559       91.39794      -10.28740
C         26.76743       90.21480      -10.61653
C         25.80303       90.43060      -11.77453
O         25.25678       89.45033      -12.26126
C         26.00025       89.73636       -9.37361
C         24.92389       90.73872       -8.91445
C         24.48565       90.38799       -7.53165
O         25.31007       90.34986       -6.63156
O         23.21207       90.07331       -7.25961
H         27.47092       91.83578       -9.35956
H         27.48449       89.41048      -10.89495
H         26.76304       89.60238       -8.57417
H         25.52216       88.74715       -9.54968
H         24.06484       90.73605       -9.62183
H         25.34079       91.75850       -8.88571
N         25.50927       91.67903      -12.23589
C         24.59340       91.93997      -13.32634
H         23.74899       92.55790      -12.95489
H         25.12617       92.50201      -14.12167
H         24.18274       91.00879      -13.76880
H         25.92724       92.49807      -11.78193
Ca        23.13706       88.81404       -5.42080
O         26.02612       89.32026       -3.36347
H         26.91717       88.99409       -3.64635
H         26.22136       90.05157       -2.72490
O         24.44837       91.91785       -3.96477
H         24.55948       92.70785       -3.37849
H         24.42321       92.29144       -4.88057

Ca 1.0



