%chk=holoCaM.loop2.water1.frame41.chk
%nprocshared=20
%mem=10GB
%nosave
#b3lyp/svp scf=(tight,noincore,xqc) Test 
#IOP(5/87=12) Density=Current Pop=(MK,readradii) iop(6/33=2) iop(6/42=6)

holoCaM.loop2.water1.frame41 

   -2  1 
C         -3.48700       13.77222       21.45306
C         -4.62346       14.57760       20.89975
O         -4.52273       15.05270       19.77804
H         -2.57756       14.40561       21.50425
H         -3.71459       13.39974       22.47474
H         -3.29593       12.90003       20.79453
N         -5.74606       14.77675       21.64190
C         -6.89274       15.54094       21.16832
C         -6.46226       16.96920       20.85993
O         -5.90648       17.61144       21.74031
C         -8.00258       15.47448       22.23403
C         -9.32663       16.01592       21.80167
O         -9.50862       16.47266       20.68454
O        -10.34792       15.94042       22.66566
H         -5.78700       14.35447       22.58335
H         -7.27300       15.04666       20.25779
H         -7.67409       15.99734       23.15794
H         -8.18388       14.40678       22.48674
N         -6.64260       17.51065       19.61543
C         -6.05681       18.78707       19.20517
C         -7.07033       19.90123       18.99017
O         -6.64239       21.04000       18.86033
C         -5.21976       18.56583       17.94473
H         -7.16466       16.97259       18.91310
H         -5.38447       19.15370       20.01020
H         -4.70896       19.50289       17.64068
H         -4.45229       17.78554       18.13477
H         -5.87126       18.22399       17.11027
N         -8.41235       19.67546       19.00143
C         -9.40873       20.74968       19.06050
C        -10.19730       20.66599       20.37880
O        -11.02678       21.53280       20.61616
C        -10.33402       20.76066       17.81173
C        -11.16508       19.52450       17.66932
O        -11.99457       19.42166       16.78006
O        -10.99610       18.54006       18.55473
H         -8.73350       18.70135       19.04486
H         -8.90268       21.73947       19.06557
H         -9.72496       20.89306       16.89216
H        -11.02492       21.62885       17.89496
N         -9.95478       19.68381       21.30592
C        -10.56136       19.64036       22.62384
C        -12.05763       19.41457       22.62496
O        -12.75692       20.30389       23.08988
H         -9.23873       18.96953       21.13231
H        -10.32036       20.59669       23.13979
H        -10.09564       18.82469       23.21930
N        -12.62129       18.23415       22.20504
C        -14.06299       17.97222       22.31032
C        -14.41825       16.86374       23.30946
O        -15.59999       16.67468       23.56083
C        -14.68004       17.66990       20.92121
C        -14.62621       16.18877       20.47521
N        -15.31019       15.97646       19.20974
O        -13.34703       15.64447       20.41586
H        -12.00911       17.50158       21.82524
H        -14.55385       18.89705       22.68256
H        -14.25352       18.35602       20.15657
H        -15.76487       17.89663       20.99728
H        -16.32243       16.19215       19.34686
H        -15.24309       14.95920       18.97583
N        -13.46734       16.06018       23.87084
C        -13.74893       14.94288       24.76522
C        -13.42510       13.59625       24.12641
O        -13.45620       12.59536       24.82764
H        -12.48339       16.20593       23.63233
H        -14.81463       14.91684       25.07832
H        -13.13146       15.07999       25.67824
N        -13.18501       13.48930       22.78768
C        -12.95127       12.24434       22.05883
C        -11.67361       12.37048       21.22051
O        -11.12794       13.46178       21.12401
C        -14.21724       11.97914       21.18781
C        -14.19355       10.68743       20.36748
O        -15.34251       11.91926       22.02950
H        -13.24474       14.33667       22.22968
H        -12.82510       11.40549       22.77770
H        -14.34096       12.81294       20.45439
H        -15.71529       12.83778       22.09324
H        -14.04318        9.80829       21.02973
H        -15.16406       10.56783       19.83952
H        -13.41419       10.71811       19.58186
N        -11.12752       11.28555       20.59782
C         -9.93185       11.33902       19.75765
C        -10.30062       10.88550       18.34942
O        -10.87358        9.81626       18.18896
C         -8.79250       10.47992       20.38084
C         -8.43851       11.03610       21.78763
C         -7.54741       10.48884       19.46690
C         -7.37932       10.22659       22.53693
H        -11.56299       10.36194       20.73701
H         -9.53889       12.37612       19.69496
H         -9.14724        9.43019       20.48113
H         -9.35015       11.03307       22.42197
H         -8.08442       12.08644       21.69714
H         -6.74252        9.84283       19.86860
H         -7.79007       10.08123       18.46632
H         -7.15517       11.52167       19.34913
H         -6.40122       10.25034       22.01624
H         -7.22687       10.67006       23.54368
H         -7.71364        9.17495       22.65757
N         -9.95636       11.65199       17.27491
C        -10.25400       11.31775       15.88669
C         -9.06197       10.63064       15.24848
O         -8.05273       10.45254       15.91066
C        -10.58906       12.61196       15.11232
C        -11.72433       13.36919       15.73837
O        -12.83182       12.86419       15.82371
O        -11.52173       14.61601       16.20540
H         -9.38740       12.48770       17.43873
H        -11.11555       10.61563       15.83860
H        -10.85547       12.38151       14.05965
H         -9.68874       13.26772       15.10147
N         -9.11624       10.17913       13.96484
C         -8.00309        9.48221       13.33140
C         -6.75658       10.35518       13.19103
O         -5.72407        9.91722       13.67888
C         -8.42498        8.86061       11.98247
C         -7.28749        8.10988       11.31627
C         -6.60311        7.07829       11.99046
C         -6.89633        8.44194       10.00740
C         -5.54277        6.40953       11.37199
C         -5.84346        7.76023        9.38849
C         -5.16420        6.74876       10.07172
H         -9.99527       10.29572       13.43692
H         -7.74261        8.62090       13.98577
H         -8.81825        9.64483       11.30426
H         -9.25369        8.14502       12.17517
H         -6.87584        6.79379       12.99773
H         -7.40795        9.22506        9.46238
H         -5.01391        5.62753       11.90210
H         -5.55205        8.01817        8.37876
H         -4.34515        6.22700        9.59364
N         -6.72345       11.57113       12.55290
C         -5.49019       12.33101       12.38340
C         -4.93716       12.83498       13.70514
O         -3.76789       13.19233       13.75100
C         -5.88899       13.46109       11.42976
C         -7.33738       13.69487       11.80940
C         -7.85579       12.26555       11.97680
H         -4.71016       11.70224       11.89896
H         -5.22697       14.35386       11.44222
H         -5.90457       13.05189       10.39407
H         -7.34260       14.19146       12.80710
H         -7.92725       14.31886       11.10524
H         -8.74177       12.30338       12.64040
H         -8.10411       11.79989       10.99998
N         -5.71083       12.88588       14.82263
C         -5.19473       13.23768       16.13733
C         -4.30651       12.10399       16.62089
O         -3.14542       12.34360       16.91961
C         -6.37328       13.54030       17.09303
C         -7.11703       14.80494       16.59590
C         -8.32834       15.19611       17.39280
O         -8.72440       14.49294       18.46589
O         -8.96478       16.18356       17.06174
H         -6.71068       12.64961       14.74390
H         -4.59243       14.17330       16.07948
H         -5.99215       13.72635       18.11851
H         -7.05885       12.66913       17.13027
H         -7.45870       14.65594       15.55135
H         -6.40594       15.66004       16.61142
N         -4.77994       10.82613       16.65400
C         -3.98262        9.66908       17.00564
H         -2.94219        9.93730       17.28127
H         -4.45648        9.13755       17.85661
H         -3.94486        8.97818       16.13497
H         -5.74954       10.64904       16.37470
Ca       -12.18543       16.74578       18.89141
O        -14.07959       16.39919       16.57247
H        -13.88421       17.31919       16.88191
H        -13.61602       16.32642       15.70167

Ca 1.0



