%chk=holoCaM-CaMKII.loop2.water2.frame282.chk
%nprocshared=20
%mem=10GB
%nosave
#b3lyp/svp scf=(tight,noincore,xqc) Test 
#IOP(5/87=12) Density=Current Pop=(MK,readradii) iop(6/33=2) iop(6/42=6)

holoCaM-CaMKII.loop2.water2.frame282 

   -2  1 
C         34.61018       38.47057       67.30774
C         35.14902       39.49697       66.35286
O         35.68915       40.50546       66.78343
H         33.53140       38.29193       67.12111
H         35.16139       37.51657       67.14954
H         34.75846       38.78478       68.36176
N         35.08367       39.25687       65.01802
C         35.75720       40.07630       64.01917
C         35.16732       41.47455       63.87170
O         33.96092       41.59859       63.70615
C         35.68112       39.38187       62.65290
C         36.69631       39.91727       61.68768
O         37.73545       40.68434       62.11395
O         36.62839       39.56150       60.52502
H         34.62387       38.38319       64.71370
H         36.82830       40.12099       64.31143
H         34.64762       39.47317       62.24808
H         35.91063       38.29945       62.74815
N         35.98859       42.56493       63.83384
C         35.52610       43.93349       63.62754
C         36.10547       44.60269       62.36703
O         35.67348       45.71066       62.07909
C         35.87830       44.73927       64.88173
H         36.99597       42.41724       63.95974
H         34.42071       43.95229       63.50667
H         36.97268       44.69230       65.07451
H         35.57310       45.80151       64.78409
H         35.35236       44.30248       65.75881
N         37.07861       44.03465       61.58421
C         37.64447       44.68556       60.38887
C         37.72283       43.79656       59.14634
O         38.08418       44.32344       58.10176
C         39.04320       45.26427       60.70877
C         40.01055       44.30624       61.35999
O         40.98814       44.79802       62.14361
O         39.85571       43.09879       61.29443
H         37.48796       43.14687       61.88838
H         37.00819       45.55029       60.09428
H         38.89503       46.10312       61.41880
H         39.51540       45.70775       59.80178
N         37.41891       42.46738       59.14863
C         37.50803       41.64528       57.94603
C         38.92242       41.44474       57.41001
O         39.04189       40.87665       56.33359
H         37.08002       42.02632       60.00847
H         36.87887       42.11208       57.15785
H         37.09009       40.63629       58.14940
N         40.03785       41.85128       58.08936
C         41.40431       41.69912       57.57723
C         41.87664       40.24376       57.40121
O         43.00585       40.05596       56.96949
C         42.41388       42.49781       58.44989
C         42.58348       42.04924       59.87941
N         43.54394       42.61374       60.64469
O         41.86940       41.18450       60.35489
H         39.91434       42.32720       58.98845
H         41.44036       42.17854       56.57544
H         42.11878       43.56924       58.46875
H         43.41002       42.43217       57.96255
H         44.15730       43.35048       60.26850
H         43.69286       42.29717       61.60935
N         41.08751       39.17083       57.69438
C         41.49106       37.78317       57.52730
C         42.11091       37.19488       58.77577
O         42.37779       36.00134       58.77676
H         40.13465       39.32066       58.01995
H         42.17623       37.66468       56.66008
H         40.57849       37.19004       57.30238
N         42.40588       37.96726       59.85996
C         43.05015       37.46867       61.06083
C         42.23841       37.86053       62.33495
O         42.15447       39.25490       62.50599
C         44.53349       37.94332       61.08431
C         45.33264       37.28314       59.95043
O         44.63135       39.33659       60.93181
H         42.23509       38.97151       59.81458
H         43.07890       36.35602       61.04833
H         45.02633       37.62039       62.03026
H         44.41042       39.74835       61.80376
H         45.27929       36.17526       60.02916
H         44.94261       37.58853       58.95632
H         46.40113       37.58068       60.00933
N         42.87282       37.21077       63.49470
C         42.46022       37.65486       64.84415
C         43.43582       38.72193       65.31171
O         44.63838       38.50423       65.25285
C         42.34762       36.41893       65.83482
C         40.84925       36.00913       65.93827
C         42.94885       36.66635       67.23471
C         40.55527       34.80634       66.83782
H         42.79727       36.17622       63.36740
H         41.46073       38.14290       64.80848
H         42.94184       35.56531       65.43906
H         40.46864       35.77789       64.92009
H         40.26577       36.86948       66.33883
H         42.91235       35.74118       67.84659
H         44.02989       36.90474       67.15251
H         42.42210       37.48300       67.76603
H         39.46363       34.59946       66.82275
H         41.09731       33.90807       66.47924
H         40.82541       35.01385       67.89381
N         42.96499       39.88011       65.86171
C         43.82505       40.92506       66.40777
C         43.77451       40.87677       67.91717
O         43.02791       40.07873       68.45939
C         43.35907       42.31438       65.92808
C         43.36270       42.44733       64.43923
O         42.62510       41.75298       63.75953
O         44.14872       43.36835       63.85039
H         41.94791       39.99345       65.97935
H         44.88157       40.75472       66.10768
H         44.03078       43.09133       66.35000
H         42.32625       42.51523       66.29106
N         44.57927       41.67393       68.67422
C         44.54492       41.62785       70.12837
C         43.21996       42.17282       70.66473
O         42.61772       41.47438       71.46918
C         45.76445       42.32856       70.76688
C         45.82058       42.04508       72.25036
C         46.03898       40.73301       72.71447
C         45.64818       43.08058       73.18221
C         46.07685       40.46482       74.08457
C         45.68187       42.80611       74.55309
C         45.89543       41.50015       75.00369
H         45.26134       42.28831       68.20447
H         44.64479       40.55863       70.42162
H         45.74118       43.41611       70.58586
H         46.70283       41.94413       70.31046
H         46.18354       39.91631       72.01773
H         45.47547       44.09590       72.84856
H         46.24525       39.45345       74.43260
H         45.53957       43.60639       75.26674
H         45.92074       41.28981       76.06477
N         42.66326       43.37174       70.26647
C         41.39732       43.89940       70.78257
C         40.17184       43.03433       70.50391
O         39.08835       43.38956       70.94597
C         41.22663       45.24063       70.05512
C         42.65879       45.64112       69.78098
C         43.25332       44.31240       69.33623
H         41.53083       44.05512       71.87665
H         40.76582       45.06254       69.05451
H         40.60638       45.98690       70.59644
H         42.77698       46.46489       69.04540
H         43.13307       45.93714       70.74424
H         42.89971       44.05857       68.31304
H         44.35129       44.37547       69.34739
N         40.27210       41.89162       69.77200
C         39.17560       40.99119       69.46800
C         39.31344       39.78168       70.37152
O         38.37533       39.47015       71.09112
C         39.24206       40.60130       67.97518
C         39.11482       41.83044       67.05507
C         39.30357       41.48729       65.60432
O         39.29042       42.37580       64.76868
O         39.51960       40.21826       65.21387
H         41.18487       41.61210       69.40278
H         38.18892       41.46627       69.66984
H         38.43563       39.87395       67.73695
H         40.22068       40.10995       67.77739
H         39.89736       42.57388       67.31667
H         38.11645       42.29911       67.19393
N         40.49046       39.09705       70.43492
C         40.74934       38.00043       71.34083
H         41.58095       38.28729       72.02119
H         39.86485       37.74330       71.95784
H         41.06040       37.10963       70.75764
H         41.27177       39.38803       69.84207
Ca        39.95423       40.02765       62.32798
O         38.88983       37.69973       63.31497
H         38.71038       38.03265       64.22887
H         38.14388       37.08088       63.12373
O         39.17514       38.81441       60.11924
H         38.92413       39.72622       59.81676
H         38.63504       38.20003       59.56546

Ca 1.0



