%chk=holoCaM-CaMKII.loop2.water2.frame242.chk
%nprocshared=20
%mem=10GB
%nosave
#b3lyp/svp scf=(tight,noincore,xqc) Test 
#IOP(5/87=12) Density=Current Pop=(MK,readradii) iop(6/33=2) iop(6/42=6)

holoCaM-CaMKII.loop2.water2.frame242 

   -2  1 
C         80.27375      123.23821       40.76216
C         80.72577      124.66832       40.86100
O         81.00507      125.14525       41.94998
H         79.26476      123.18989       40.30221
H         80.98478      122.67464       40.11822
H         80.24552      122.75228       41.75974
N         80.85571      125.40051       39.72524
C         81.40386      126.75099       39.67574
C         80.53736      127.79872       40.36245
O         79.37808      127.94633       40.00145
C         81.59626      127.15564       38.20392
C         82.19728      128.51927       38.09985
O         81.61747      129.39744       37.48237
O         83.35660      128.78596       38.72779
H         80.62015      124.93365       38.83455
H         82.41247      126.73427       40.14357
H         80.62217      127.13299       37.66691
H         82.27922      126.43251       37.71354
N         81.09139      128.63425       41.29324
C         80.39984      129.77756       41.88016
C         81.13057      131.11256       41.64388
O         80.58239      132.12604       42.05538
C         80.24309      129.53910       43.38652
H         82.06158      128.46531       41.58421
H         79.38208      129.87317       41.44352
H         79.68140      128.59743       43.56538
H         81.23896      129.45664       43.87404
H         79.68082      130.37190       43.86119
N         82.36767      131.20571       41.05344
C         83.12441      132.46415       40.95501
C         83.63660      132.80694       39.54289
O         84.24481      133.85847       39.39560
C         84.27794      132.43604       41.98196
C         85.16291      131.22794       41.86570
O         85.76212      130.99593       40.83401
O         85.29605      130.39013       42.91055
H         82.84572      130.34813       40.75134
H         82.48257      133.32398       41.24821
H         83.83445      132.42933       43.00142
H         84.88898      133.36025       41.89123
N         83.39738      132.01917       38.45707
C         83.75609      132.37637       37.08380
C         85.23966      132.38029       36.72585
O         85.53581      132.68862       35.57969
H         82.84147      131.17298       38.58857
H         83.32640      133.37595       36.85441
H         83.27697      131.64414       36.39829
N         86.22701      132.06193       37.61007
C         87.65674      132.11321       37.27555
C         88.14967      131.00157       36.32986
O         89.34470      130.96078       36.06972
C         88.50414      132.19071       38.56852
C         88.45216      131.00856       39.49755
N         89.13157      131.06964       40.66527
O         87.80276      130.01159       39.22182
H         85.95838      131.85205       38.57641
H         87.85908      133.08609       36.77403
H         88.15813      133.07869       39.14212
H         89.56889      132.36121       38.29824
H         89.67187      131.90985       40.91599
H         89.11767      130.28958       41.32933
N         87.30827      130.10072       35.74026
C         87.74376      129.07861       34.79046
C         88.50325      127.90080       35.39183
O         88.86385      127.01319       34.63246
H         86.29786      130.18505       35.89206
H         88.35154      129.55695       33.99063
H         86.84089      128.64757       34.30616
N         88.78300      127.81114       36.72257
C         89.51287      126.70660       37.34739
C         88.71310      126.13025       38.50539
O         88.34551      126.87934       39.39585
C         90.88658      127.21475       37.85166
C         91.85869      127.38299       36.68313
O         90.76879      128.44750       38.51955
H         88.49090      128.57815       37.33725
H         89.70717      125.87971       36.62840
H         91.35251      126.45522       38.52189
H         90.37952      128.27135       39.41266
H         92.84188      127.73479       37.06006
H         92.01496      126.40283       36.18056
H         91.47224      128.11127       35.94034
N         88.42606      124.79398       38.57472
C         87.68119      124.21291       39.69483
C         88.50758      124.36180       40.96927
O         89.58194      123.78248       41.05450
C         87.30880      122.70808       39.45713
C         86.52493      122.51358       38.12790
C         86.47200      122.18136       40.64622
C         86.20849      121.04973       37.80416
H         88.75520      124.18491       37.81295
H         86.72515      124.77013       39.79145
H         88.24943      122.11639       39.39356
H         87.12648      122.88550       37.27609
H         85.57687      123.08977       38.15396
H         87.02415      122.28235       41.59687
H         85.51563      122.74231       40.73007
H         86.24790      121.10146       40.54822
H         85.50892      120.60703       38.54063
H         85.71778      120.99086       36.80992
H         87.14293      120.44961       37.77286
N         88.06564      125.14141       41.99643
C         88.78952      125.30562       43.25128
C         88.59484      124.07220       44.12323
O         87.82711      123.20337       43.74426
C         88.32122      126.58431       43.98779
C         88.74231      127.85507       43.27370
O         88.20253      128.27442       42.10496
O         89.60339      128.55108       43.78794
H         87.16435      125.61074       41.89506
H         89.87596      125.42234       43.03845
H         88.82975      126.59647       44.97549
H         87.22488      126.57696       44.17679
N         89.27939      123.89611       45.29148
C         89.10483      122.69844       46.11100
C         87.70046      122.63327       46.71802
O         87.06606      121.60539       46.53983
C         90.20337      122.55225       47.19247
C         90.12555      121.20558       47.88413
C         89.82488      121.11854       49.25495
C         90.35902      120.01978       47.16065
C         89.75281      119.87060       49.88474
C         90.29010      118.77625       47.79539
C         89.98573      118.70123       49.15596
H         89.97474      124.60365       45.57556
H         89.24862      121.82053       45.44149
H         90.14114      123.36015       47.93818
H         91.20593      122.63303       46.71950
H         89.63916      122.01323       49.83543
H         90.60144      120.05503       46.10621
H         89.51628      119.80897       50.93904
H         90.47389      117.87025       47.23171
H         89.93180      117.73688       49.64508
N         87.12989      123.66330       47.43341
C         85.78081      123.62043       47.99906
C         84.73241      123.16349       47.00322
O         83.95343      122.27178       47.31018
C         85.51165      125.07894       48.40609
C         86.88908      125.54775       48.79604
C         87.73863      124.95802       47.67705
H         85.79009      122.96201       48.89623
H         85.22685      125.68674       47.51658
H         84.72326      125.20476       49.17836
H         87.00204      126.64470       48.92970
H         87.16022      125.03911       49.74992
H         87.66852      125.56066       46.74760
H         88.77797      124.93007       48.03853
N         84.69389      123.72426       45.76509
C         83.75535      123.34723       44.71068
C         83.88589      121.86885       44.40334
O         82.88469      121.16723       44.42700
C         84.01083      124.21304       43.45689
C         83.67360      125.68673       43.76564
C         84.07256      126.63731       42.68992
O         84.00285      127.83411       42.91317
O         84.65756      126.21860       41.55840
H         85.41071      124.43630       45.55479
H         82.71003      123.54369       45.03961
H         83.37716      123.87462       42.60872
H         85.07901      124.10997       43.15609
H         84.23790      126.02063       44.65938
H         82.59206      125.80078       43.98488
N         85.10395      121.31402       44.17225
C         85.28647      119.89658       43.95931
H         86.37005      119.66675       43.86922
H         84.88183      119.33003       44.82599
H         84.76988      119.58234       43.02976
H         85.93578      121.90987       44.19715
Ca        86.29719      127.63955       41.08623
O         84.71609      125.68135       38.47807
H         84.55765      125.34468       37.56061
H         84.10337      125.15337       39.04817
O         85.59955      128.39434       37.41159
H         86.07911      127.54132       37.28060
H         84.93268      128.41869       36.67868

Ca 1.0



