%chk=holoCaM-CaMKII.loop4.water1.frame352.chk
%nprocshared=20
%mem=10GB
%nosave
#b3lyp/svp scf=(tight,noincore,xqc) Test 
#IOP(5/87=12) Density=Current Pop=(MK,readradii) iop(6/33=2) iop(6/42=6)

holoCaM-CaMKII.loop4.water1.frame352 

   -3  1 
C         33.07289       69.64393       22.70251
C         32.47556       69.10618       21.43716
O         32.63183       67.92668       21.15534
H         33.79272       70.45229       22.45553
H         32.27059       70.05396       23.35112
H         33.60950       68.84484       23.25753
N         31.75962       69.92896       20.62150
C         31.15525       69.47404       19.37580
C         32.22512       69.04706       18.38772
O         33.00434       69.87111       17.92941
C         30.27206       70.58391       18.77953
C         29.73258       70.28581       17.40320
O         30.00478       71.05070       16.49216
O         28.94177       69.22404       17.14120
H         31.62705       70.90906       20.91691
H         30.49535       68.61417       19.61369
H         30.87569       71.51665       18.71053
H         29.42397       70.77940       19.47121
N         32.30747       67.74074       18.02882
C         33.25261       67.21512       17.05568
C         32.76785       67.51985       15.64972
O         33.56807       67.97963       14.84675
C         33.44679       65.67840       17.28351
C         34.10414       65.46170       18.67860
C         34.29484       65.03255       16.16884
C         34.28588       64.00040       19.08675
H         31.66590       67.07602       18.48565
H         34.26049       67.66743       17.20287
H         32.45895       65.17996       17.25243
H         33.47374       65.93246       19.46108
H         35.10020       65.95704       18.70091
H         34.38007       63.93734       16.32032
H         33.80485       65.15864       15.18074
H         35.31009       65.47834       16.13087
H         34.71990       63.96152       20.10904
H         33.30962       63.47859       19.09585
H         34.98441       63.47009       18.40989
N         31.48875       67.22661       15.26793
C         31.06157       67.22815       13.86923
C         30.03941       68.30558       13.50097
O         29.02677       67.99344       12.88822
C         30.61631       65.79536       13.47872
C         29.42377       65.26608       14.23900
O         29.02092       64.13709       14.01191
O         28.79581       66.01063       15.16697
H         30.83195       66.90616       15.99164
H         31.93298       67.45922       13.21874
H         31.46841       65.10530       13.66320
H         30.38260       65.76500       12.39256
N         30.32915       69.62286       13.70497
C         29.62844       70.70574       13.01818
C         28.14483       70.88918       13.28116
O         27.55316       71.68159       12.56160
H         31.18180       69.86702       14.23132
H         29.74456       70.51878       11.92859
H         30.13393       71.67128       13.23866
N         27.47274       70.24864       14.27599
C         26.03498       70.41894       14.50659
C         25.72588       71.22557       15.76961
O         24.55336       71.38803       16.08010
C         25.32363       69.04983       14.47430
C         25.92022       68.03898       15.40725
O         26.30371       66.96629       14.97438
O         26.04584       68.30505       16.71457
H         27.99929       69.63612       14.91039
H         25.56776       71.01484       13.69170
H         25.38065       68.64174       13.44080
H         24.24830       69.18749       14.71827
N         26.70382       71.85580       16.48220
C         26.43375       72.78052       17.57563
C         25.91947       72.15688       18.85676
O         25.69042       72.91510       19.78980
H         27.67835       71.78060       16.17247
H         25.71438       73.55300       17.22377
H         27.38023       73.30086       17.83703
N         25.71195       70.81720       19.00106
C         25.23328       70.20944       20.24099
C         26.20226       69.14272       20.73193
O         27.19057       68.88176       20.06099
C         23.77226       69.73646       20.05826
C         23.51834       68.69517       18.95330
C         24.06170       67.33969       19.30478
N         23.59955       66.68689       20.39279
O         24.90733       66.81367       18.59936
H         25.89333       70.19784       18.20486
H         25.19661       70.97453       21.04748
H         23.18488       70.64113       19.78786
H         23.36650       69.37247       21.02532
H         23.92387       69.06009       17.98761
H         22.42116       68.58338       18.81973
H         22.86953       67.09780       20.99103
H         23.96784       65.76218       20.63379
N         26.02345       68.54313       21.94346
C         26.98671       67.61928       22.54291
C         26.29216       66.31446       22.91943
O         25.28694       66.35638       23.61689
C         27.63553       68.29310       23.78860
C         28.70219       67.38827       24.43261
C         28.29709       69.63214       23.40904
H         25.20394       68.81489       22.50924
H         27.82014       67.39857       21.83778
H         26.84665       68.50196       24.54487
H         29.51976       67.16793       23.71161
H         29.14377       67.88941       25.32116
H         28.25931       66.43191       24.77531
H         29.09711       69.47761       22.65217
H         27.55028       70.34228       22.99682
H         28.74513       70.10997       24.30651
N         26.82402       65.11230       22.55179
C         26.27095       63.81419       22.94069
C         27.14145       63.17062       24.00285
O         28.14897       63.74388       24.39402
C         26.21793       62.87498       21.71266
C         25.24621       63.33477       20.66783
N         25.67171       63.68447       19.43272
O         24.05392       63.36567       20.93303
H         27.71426       65.11152       22.03467
H         25.25767       63.92612       23.38536
H         25.90392       61.85091       22.00377
H         27.24084       62.79363       21.28548
H         26.67322       63.65516       19.19281
H         24.99754       63.98767       18.71476
N         26.78524       61.96742       24.53737
C         27.60677       61.24481       25.49944
C         28.88268       60.74231       24.84118
O         29.93545       60.83343       25.45484
C         26.81738       60.07586       26.12235
C         27.58506       59.41376       27.24731
C         27.98933       60.16043       28.37143
C         27.89841       58.04623       27.19021
C         28.70261       59.55419       29.40739
C         28.60636       57.43952       28.23372
C         29.01321       58.19366       29.34458
O         29.69862       57.62368       30.35595
H         25.88573       61.54999       24.25159
H         27.85649       61.94190       26.32777
H         26.54984       59.34246       25.32970
H         25.87160       60.47284       26.55172
H         27.75773       61.21448       28.45162
H         27.59364       57.44806       26.34095
H         29.01227       60.14441       30.26118
H         28.83848       56.38384       28.17770
H         29.93137       56.68452       30.35550
N         28.86888       60.22995       23.57213
C         30.08798       59.82169       22.86860
C         31.05198       60.99696       22.66821
O         32.19550       60.75432       22.30989
C         29.71357       59.20235       21.49472
C         30.89822       58.60481       20.70951
C         30.44665       58.04962       19.38976
O         29.94599       58.78541       18.55342
O         30.61891       56.74416       19.10940
H         27.96201       60.14496       23.08753
H         30.58528       59.04610       23.49294
H         29.22042       59.98658       20.87734
H         28.97992       58.38411       21.66781
H         31.36840       57.79897       21.31402
H         31.66256       59.37156       20.48027
N         30.67029       62.29221       22.87891
C         31.54437       63.43713       22.65639
C         31.90564       64.14338       23.95739
O         32.73744       65.03900       23.91376
C         30.86921       64.43217       21.69110
C         30.35083       63.75252       20.41454
C         29.83064       64.76911       19.44693
O         30.32456       64.84990       18.33664
O         28.84516       65.61943       19.78238
H         29.71172       62.49213       23.16939
H         32.49876       63.09404       22.20116
H         31.60287       65.22687       21.43102
H         30.00710       64.91303       22.20230
H         29.53676       63.04079       20.66195
H         31.17467       63.18483       19.93581
N         31.33457       63.80016       25.14899
C         31.67973       64.40339       26.41820
H         32.49165       65.15288       26.32568
H         30.78180       64.89454       26.84808
H         32.01589       63.60593       27.11511
H         30.60895       63.08067       25.18335
Ca        28.69054       67.34133       18.34815
O         27.01950       64.30123       16.63525
H         26.14449       63.90038       16.40402
H         27.66515       63.55504       16.55290

Ca 1.0



