%chk=holoCaM-CaMKII.loop2.water0.frame105.chk
%nprocshared=20
%mem=10GB
%nosave
#b3lyp/svp scf=(tight,noincore,xqc) Test 
#IOP(5/87=12) Density=Current Pop=(MK,readradii) iop(6/33=2) iop(6/42=6)

holoCaM-CaMKII.loop2.water0.frame105 

   -2  1 
C         25.97235       44.05289       45.84011
C         25.21919       44.17631       44.56060
O         25.72217       44.76742       43.62762
H         26.92566       44.61777       45.78186
H         25.35458       44.42398       46.68050
H         26.20381       42.97692       45.99347
N         24.00880       43.56297       44.44979
C         23.29191       43.45535       43.19040
C         22.74170       44.80926       42.76982
O         21.72429       45.27132       43.25391
C         22.28344       42.33610       43.30978
C         21.41772       42.19774       42.10821
O         21.81485       41.88995       40.83627
O         20.23566       42.37125       42.32150
H         23.63432       43.08833       45.28180
H         23.99353       43.08650       42.42378
H         21.63670       42.53181       44.20270
H         22.81597       41.37978       43.50767
N         23.53833       45.55349       41.95812
C         23.39773       46.95859       41.64007
C         22.20746       47.27176       40.75484
O         21.60057       48.31133       40.93072
C         24.70913       47.41482       40.98029
H         24.39381       45.10158       41.65004
H         23.29785       47.51907       42.59359
H         24.87972       46.87214       40.02430
H         24.72706       48.50550       40.80089
H         25.55200       47.16697       41.66678
N         21.81041       46.38624       39.79768
C         20.60266       46.56452       38.98846
C         19.37424       45.96182       39.68065
O         18.26551       46.21161       39.21868
C         20.86024       46.00604       37.56070
C         21.32639       44.57118       37.54091
O         22.00967       44.16307       36.61676
O         21.12402       43.77116       38.59552
H         22.32779       45.50525       39.73052
H         20.39365       47.65352       38.88164
H         21.68024       46.61205       37.11789
H         19.98058       46.11246       36.88817
N         19.47960       45.21078       40.81612
C         18.34441       44.64801       41.53478
C         17.72050       43.47841       40.79649
O         16.53898       43.22758       40.99715
H         20.40825       45.02018       41.20826
H         17.59530       45.44343       41.74309
H         18.67351       44.28649       42.53248
N         18.46450       42.68764       39.96799
C         17.89950       41.63778       39.11748
C         17.95573       40.24833       39.76572
O         17.33752       39.32059       39.24910
C         18.53211       41.72652       37.70108
C         19.70716       40.81211       37.43965
N         19.64936       39.92551       36.41578
O         20.71401       40.88404       38.12315
H         19.46302       42.88328       39.88184
H         16.82802       41.89807       38.98311
H         18.85012       42.77471       37.50154
H         17.75160       41.49357       36.95235
H         18.80899       39.86282       35.82254
H         20.44613       39.31235       36.19407
N         18.68595       40.03457       40.89307
C         18.78125       38.81077       41.66630
C         20.00176       37.96258       41.32211
O         20.11340       36.87525       41.85688
H         19.24669       40.80115       41.22748
H         17.86569       38.20407       41.51478
H         18.80894       39.08080       42.74900
N         20.91024       38.36989       40.38391
C         21.98100       37.52344       39.83892
C         23.26790       38.32605       39.76466
O         23.24701       39.44468       39.31551
C         21.56349       37.07229       38.42567
C         22.65062       36.26289       37.68530
O         20.39222       36.30119       38.53378
H         20.78135       39.28967       39.95601
H         22.13691       36.61275       40.45309
H         21.35636       37.99545       37.84975
H         20.08216       36.09783       37.61482
H         23.64447       36.75381       37.73052
H         22.74856       35.22987       38.08211
H         22.37258       36.20188       36.61240
N         24.43790       37.77642       40.19306
C         25.65943       38.56079       40.33677
C         26.32876       38.77083       38.99454
O         26.66533       37.79693       38.32648
C         26.67936       37.88958       41.31033
C         26.03069       37.29433       42.59059
C         27.72064       38.95447       41.73996
C         26.95249       36.26339       43.24846
H         24.41292       36.80074       40.48657
H         25.37621       39.52989       40.80466
H         27.16634       37.04973       40.76589
H         25.12115       36.71038       42.38113
H         25.73019       38.10512       43.28702
H         28.26975       39.37044       40.87666
H         27.19863       39.80041       42.24739
H         28.46562       38.55335       42.45100
H         27.12374       35.42136       42.53849
H         27.93196       36.68912       43.53326
H         26.46571       35.84515       44.15254
N         26.64591       40.02480       38.58840
C         27.43334       40.32960       37.41681
C         28.80135       40.76230       37.86177
O         28.97959       40.91975       39.05430
C         26.77924       41.46522       36.61750
C         25.35859       41.18677       36.16726
O         25.20073       40.82133       35.01407
O         24.23775       41.40005       36.92632
H         26.42802       40.80436       39.21179
H         27.57950       39.41551       36.79433
H         27.42174       41.61263       35.71654
H         26.80055       42.41505       37.19049
N         29.83125       40.90900       37.00031
C         31.20902       41.17223       37.39761
C         31.43238       42.52733       38.09332
O         32.18477       42.52508       39.05635
C         32.14842       40.98550       36.19064
C         33.58123       40.87099       36.64012
C         34.49900       41.88616       36.34307
C         34.00318       39.75380       37.38880
C         35.80493       41.81499       36.83376
C         35.31558       39.67872       37.86248
C         36.21069       40.71852       37.59995
H         29.64165       40.70300       36.00601
H         31.48098       40.38334       38.14141
H         31.99445       41.83613       35.49594
H         31.88934       40.05006       35.64536
H         34.19550       42.74410       35.75751
H         33.31534       38.94538       37.61086
H         36.49923       42.61763       36.62917
H         35.63474       38.82253       38.44417
H         37.21910       40.67613       37.98897
N         30.83319       43.71650       37.72916
C         31.02828       44.95864       38.48816
C         30.42862       44.90436       39.90738
O         30.51370       45.88694       40.63244
C         30.32469       46.04273       37.65988
C         30.18225       45.40855       36.28664
C         29.96639       43.93081       36.59569
H         32.12016       45.16670       38.51436
H         29.29905       46.22062       38.04875
H         30.88394       47.00682       37.64225
H         29.39920       45.88282       35.65425
H         31.16547       45.49342       35.77812
H         28.91602       43.74727       36.91492
H         30.21682       43.31985       35.70465
N         29.79308       43.78319       40.34766
C         29.20475       43.54482       41.65715
C         29.99174       42.41210       42.35817
O         30.22273       42.50133       43.55473
C         27.71782       43.13800       41.46796
C         26.85235       44.14226       40.65656
C         25.57575       43.51283       40.17242
O         24.80854       44.14988       39.46366
O         25.26828       42.25273       40.52569
H         29.69347       43.01531       39.69476
H         29.25521       44.45951       42.28580
H         27.24147       42.97213       42.45885
H         27.71482       42.17094       40.92748
H         27.37401       44.49295       39.74640
H         26.62046       45.03143       41.27420
N         30.49628       41.35354       41.65017
C         31.32710       40.29150       42.16567
H         32.27162       40.71734       42.55589
H         30.79537       39.69665       42.93342
H         31.59496       39.60449       41.32460
H         30.35477       41.29549       40.65603
Ca        23.28719       41.94523       38.99909

Ca 1.0



