%chk=holoCaM-CaMKII.loop2.water2.frame368.chk
%nprocshared=20
%mem=10GB
%nosave
#b3lyp/svp scf=(tight,noincore,xqc) Test 
#IOP(5/87=12) Density=Current Pop=(MK,readradii) iop(6/33=2) iop(6/42=6)

holoCaM-CaMKII.loop2.water2.frame368 

   -2  1 
C         39.98469       63.37353       47.29604
C         40.00068       64.18750       48.56424
O         40.98405       64.14798       49.28871
H         39.04165       63.52561       46.72640
H         40.82748       63.68268       46.64156
H         40.07953       62.29354       47.52900
N         38.93913       64.97955       48.87421
C         38.88694       65.87933       50.02237
C         38.89500       65.15997       51.36921
O         38.14311       64.21730       51.56869
C         37.62591       66.75226       49.92765
C         37.56238       67.74301       51.04852
O         38.46701       68.54505       51.20735
O         36.51649       67.73180       51.89510
H         38.14338       64.98889       48.21687
H         39.75688       66.57262       49.95954
H         36.71998       66.10984       49.94968
H         37.64259       67.31341       48.96884
N         39.68932       65.64528       52.36559
C         39.77073       65.13192       53.72761
C         39.60854       66.23523       54.79014
O         39.68464       65.90548       55.96656
C         41.16124       64.50568       53.90463
H         40.27643       66.44671       52.13726
H         39.00751       64.34117       53.89026
H         41.27380       64.05908       54.91501
H         41.31956       63.70727       53.14904
H         41.95358       65.27567       53.77214
N         39.49238       67.56180       54.46294
C         39.64612       68.65181       55.43082
C         38.63865       69.79554       55.28504
O         38.67144       70.69496       56.11418
C         41.09149       69.19186       55.31763
C         41.49492       69.71283       53.95014
O         40.63128       69.75758       52.91013
O         42.64467       70.08399       53.77974
H         39.46831       67.81977       53.47689
H         39.52833       68.25555       56.46442
H         41.77802       68.35250       55.56705
H         41.25530       69.99050       56.07379
N         37.72607       69.84828       54.27426
C         36.73388       70.90511       54.12454
C         37.26884       72.29943       53.81469
O         36.44103       73.19098       53.68782
H         37.68387       69.08089       53.59963
H         36.12200       70.95255       55.05129
H         36.05571       70.62879       53.28751
N         38.59813       72.59506       53.68830
C         39.08416       73.96252       53.46868
C         38.83459       74.51095       52.05361
O         39.27850       75.61872       51.78293
C         40.57402       74.09793       53.88031
C         41.57013       73.34125       53.05034
N         42.89035       73.45180       53.31533
O         41.19993       72.63362       52.13511
H         39.29135       71.85098       53.83372
H         38.55941       74.63186       54.18581
H         40.68381       73.76705       54.93587
H         40.85179       75.17302       53.83226
H         43.22620       74.04826       54.08475
H         43.57950       72.94816       52.74282
N         38.10747       73.83623       51.11425
C         37.81775       74.37328       49.79060
C         38.95839       74.24774       48.79765
O         38.76060       74.64958       47.65961
H         37.65971       72.94679       51.35821
H         37.47404       75.42758       49.87673
H         36.97853       73.78982       49.35338
N         40.15393       73.67564       49.12366
C         41.22973       73.44823       48.16723
C         41.56667       71.93108       48.10075
O         42.36904       71.55478       49.18341
C         42.47578       74.30986       48.52592
C         42.26609       75.77906       48.16449
O         42.76518       74.22290       49.90095
H         40.30815       73.35731       50.08283
H         40.89591       73.73226       47.14403
H         43.35299       73.98591       47.91825
H         43.49750       73.56597       50.02062
H         41.39776       76.20580       48.70665
H         43.17751       76.36004       48.42397
H         42.09910       75.87636       47.06950
N         42.21267       71.60100       46.80857
C         43.19034       70.49575       46.80573
C         44.48890       70.92926       47.47955
O         45.08718       71.91539       47.07287
C         43.42501       70.02829       45.33384
C         42.10935       69.41045       44.78535
C         44.58797       69.01841       45.23573
C         42.16652       69.00224       43.31198
H         42.63650       72.43680       46.34077
H         42.77481       69.62330       47.35679
H         43.70325       70.91260       44.71723
H         41.28793       70.15182       44.88341
H         41.83889       68.51596       45.38965
H         44.77715       68.71900       44.18634
H         45.53351       69.48360       45.57885
H         44.38311       68.11335       45.84416
H         41.17597       68.60304       43.00690
H         42.40696       69.88093       42.67790
H         42.91041       68.19988       43.13542
N         45.00324       70.16856       48.48732
C         46.30351       70.39920       49.10097
C         47.31130       69.48534       48.43872
O         46.94086       68.70701       47.57312
C         46.25823       70.08678       50.61562
C         45.33810       70.97964       51.38700
O         44.14238       70.97730       51.15868
O         45.82640       71.75262       52.37557
H         44.52419       69.29236       48.72204
H         46.63736       71.44709       48.93585
H         47.27338       70.20430       51.04869
H         45.94205       69.03247       50.77326
N         48.62784       69.54683       48.77814
C         49.61731       68.67564       48.16516
C         49.35795       67.21044       48.50275
O         49.31898       66.43187       47.55893
C         51.05357       69.14174       48.47757
C         52.08495       68.23597       47.84397
C         52.07666       67.97900       46.45848
C         53.06647       67.62994       48.64495
C         53.02353       67.12083       45.89460
C         54.01916       66.78278       48.07372
C         53.99523       66.52467       46.70095
H         48.93556       70.25021       49.46533
H         49.51999       68.79041       47.06311
H         51.22988       69.21196       49.56568
H         51.17797       70.16767       48.06776
H         51.33547       68.42829       45.81080
H         53.09695       67.81501       49.71150
H         53.00256       66.91810       44.83150
H         54.77450       66.32425       48.69762
H         54.72986       65.86317       46.26180
N         49.13811       66.72246       49.76756
C         48.88673       65.31219       50.04509
C         47.60840       64.74737       49.43137
O         47.36881       63.56145       49.60451
C         48.80557       65.23953       51.57503
C         49.69100       66.39852       51.98853
C         49.23947       67.46987       51.00264
H         49.77281       64.74435       49.68143
H         47.77399       65.50397       51.90649
H         49.06840       64.24815       52.00332
H         49.60597       66.68740       53.05716
H         50.75013       66.13217       51.76492
H         48.22511       67.83128       51.28250
H         49.95076       68.30869       50.99103
N         46.74364       65.52669       48.71141
C         45.50975       65.02893       48.11243
C         45.60060       65.00620       46.59516
O         44.76947       64.35714       45.97470
C         44.31926       65.91065       48.53571
C         44.31506       66.16446       50.04425
C         43.14545       66.98091       50.46329
O         42.36936       66.51923       51.44185
O         42.91537       68.07130       49.97115
H         46.94227       66.52212       48.59329
H         45.33448       63.98555       48.45429
H         43.36840       65.43509       48.20649
H         44.40310       66.90116       48.03426
H         45.22749       66.72494       50.33369
H         44.29745       65.19972       50.59494
N         46.56631       65.70155       45.92669
C         46.73658       65.68569       44.49230
H         47.77191       65.35518       44.26235
H         46.02604       64.99963       43.98955
H         46.59589       66.71276       44.09567
H         47.22064       66.29871       46.43874
Ca        41.34418       70.32671       50.82663
O         38.64457       70.97335       49.68350
H         37.87066       71.25046       49.13354
H         38.28855       70.92862       50.60553
O         40.28274       68.71399       48.20558
H         40.86841       67.96195       47.93775
H         39.46712       68.60097       47.65632

Ca 1.0



