%chk=holoCaM-CaMKII.loop2.water1.frame21.chk
%nprocshared=20
%mem=10GB
%nosave
#b3lyp/svp scf=(tight,noincore,xqc) Test 
#IOP(5/87=12) Density=Current Pop=(MK,readradii) iop(6/33=2) iop(6/42=6)

holoCaM-CaMKII.loop2.water1.frame21 

   -2  1 
C         42.24703       58.32074       19.38192
C         43.13130       58.10604       18.18666
O         44.08183       57.34172       18.26591
H         41.20805       58.01508       19.13076
H         42.59082       57.71796       20.24883
H         42.24582       59.39437       19.66395
N         42.84478       58.74259       17.02011
C         43.58678       58.53484       15.78233
C         45.02357       59.02432       15.87078
O         45.23782       60.18347       16.19785
C         42.87689       59.25404       14.62144
C         43.56417       58.95794       13.32137
O         44.02352       59.86307       12.64445
O         43.70075       57.68168       12.91725
H         42.01908       59.36272       17.00374
H         43.56771       57.45197       15.54536
H         42.85276       60.35135       14.80555
H         41.83011       58.88761       14.54869
N         46.05121       58.20229       15.50132
C         47.44737       58.62346       15.45177
C         48.03260       58.57950       14.03551
O         49.18118       58.97423       13.88876
C         48.26688       57.72420       16.38298
H         45.83293       57.23718       15.21614
H         47.54532       59.67170       15.80792
H         49.33199       58.03934       16.39783
H         47.86956       57.78598       17.41834
H         48.21272       56.66613       16.04440
N         47.33778       58.10183       12.95641
C         47.90062       58.00466       11.60677
C         47.04153       58.72539       10.55978
O         47.59316       59.57701        9.87599
C         48.22493       56.53312       11.24473
C         47.18584       55.53495       11.64898
O         47.46781       54.65438       12.44713
O         45.93110       55.62885       11.20631
H         46.38666       57.73637       13.09176
H         48.89623       58.50146       11.55795
H         49.14874       56.25048       11.79836
H         48.45294       56.44933       10.16051
N         45.71269       58.46285       10.36471
C         44.89793       59.13130        9.35094
C         44.21640       58.18093        8.37191
O         43.52317       58.67381        7.49323
H         45.23504       57.80017       10.97956
H         45.50689       59.84417        8.75495
H         44.10694       59.71607        9.86594
N         44.36117       56.82433        8.43796
C         43.76138       55.88675        7.48180
C         42.22130       55.81315        7.51444
O         41.67550       55.05112        6.72794
C         44.38351       54.47517        7.66651
C         44.06742       53.80768        8.98005
N         44.57330       52.58603        9.26280
O         43.35435       54.36397        9.79529
H         44.98322       56.43814        9.15472
H         44.06283       56.21200        6.46154
H         45.48907       54.56410        7.57977
H         44.03331       53.80869        6.84958
H         45.18458       52.09972        8.59149
H         44.35378       52.12561       10.15780
N         41.45164       56.57293        8.35260
C         39.99081       56.58501        8.31028
C         39.31103       55.50673        9.14311
O         38.08859       55.48853        9.16100
H         41.90074       57.25893        8.96896
H         39.64403       56.54363        7.25354
H         39.64221       57.55718        8.71908
N         40.01524       54.58521        9.85679
C         39.41627       53.52437       10.66432
C         39.96018       53.53615       12.08211
O         41.17033       53.54887       12.24860
C         39.74210       52.14300       10.04392
C         39.02342       51.93933        8.71255
O         41.12660       51.99022        9.84297
H         41.03563       54.60753        9.80427
H         38.30741       53.60880       10.70562
H         39.35789       51.34067       10.72072
H         41.50114       51.56029       10.65537
H         39.25525       50.92737        8.31769
H         37.92424       52.01129        8.86122
H         39.34236       52.69834        7.96878
N         39.12512       53.39713       13.15499
C         39.63034       53.09589       14.49632
C         40.36530       51.76319       14.42015
O         39.78386       50.79236       13.95067
C         38.48450       53.00104       15.55929
C         37.73507       54.35315       15.69107
C         39.06151       52.57631       16.93236
C         36.54412       54.30202       16.65542
H         38.10728       53.38909       12.99164
H         40.31978       53.90372       14.82950
H         37.76159       52.22044       15.23262
H         37.33170       54.65046       14.70213
H         38.43812       55.14624       16.02828
H         39.56184       51.59266       16.86437
H         39.79363       53.32613       17.30270
H         38.26878       52.43867       17.69215
H         36.02334       55.28187       16.65335
H         35.82583       53.51588       16.33951
H         36.86444       54.10843       17.69894
N         41.62832       51.63556       14.90942
C         42.36598       50.37604       14.90922
C         42.30403       49.77040       16.28835
O         41.73440       50.38206       17.18081
C         43.84929       50.62210       14.57061
C         44.07093       51.38773       13.31621
O         44.86895       50.99682       12.47955
O         43.46987       52.57421       13.17006
H         42.05169       52.44667       15.38292
H         41.91872       49.66049       14.18391
H         44.40885       49.66703       14.51028
H         44.28827       51.23934       15.38582
N         42.85756       48.56306       16.55556
C         42.86390       48.00101       17.89508
C         43.74595       48.81521       18.85787
O         43.23255       49.17396       19.90472
C         43.17732       46.49526       17.85738
C         42.91761       45.80646       19.18223
C         43.90877       45.00080       19.76429
C         41.67190       45.93239       19.83731
C         43.66247       44.33964       20.97280
C         41.43929       45.28649       21.05230
C         42.43207       44.48765       21.61877
H         43.26183       48.01755       15.77487
H         41.81729       48.06529       18.25739
H         44.21175       46.31805       17.49319
H         42.47953       46.03452       17.12323
H         44.86540       44.86956       19.27533
H         40.87109       46.52961       19.42399
H         44.42557       43.70931       21.40850
H         40.48454       45.40217       21.55044
H         42.24422       43.97972       22.55549
N         45.03339       49.22292       18.57098
C         45.84024       50.06648       19.46197
C         45.31998       51.49742       19.62757
O         45.98069       52.26334       20.31935
C         47.23483       50.03484       18.81970
C         46.90523       49.92063       17.35305
C         45.77961       48.89113       17.37470
H         45.92023       49.62290       20.47761
H         47.91480       50.86888       19.10069
H         47.73034       49.07827       19.10195
H         46.48528       50.90055       17.02542
H         47.75561       49.66004       16.68761
H         45.22633       49.01205       16.43800
H         46.16048       47.85081       17.46871
N         44.13750       51.91943       19.09886
C         43.55267       53.23149       19.34092
C         42.36809       53.06190       20.27615
O         42.36856       53.66292       21.34025
C         43.13950       53.88316       18.00851
C         44.35386       54.09135       17.08930
C         43.99095       54.69266       15.76183
O         44.87058       54.89947       14.94344
O         42.71579       55.00276       15.45462
H         43.57953       51.27290       18.53559
H         44.27875       53.91057       19.84336
H         42.66110       54.86676       18.21112
H         42.39625       53.23504       17.49992
H         44.84521       53.11515       16.89375
H         45.08326       54.76100       17.59403
N         41.34686       52.21341       19.96518
C         40.23175       51.93018       20.84404
H         39.28146       52.16858       20.32358
H         40.23749       50.84717       21.09513
H         40.27931       52.50664       21.79051
H         41.36627       51.71004       19.07483
Ca        44.53840       54.21560       12.17151
O         41.57193       56.64687       11.49788
H         41.04854       56.55674       12.33250
H         41.57151       57.61865       11.30748

Ca 1.0



