%chk=holoCaM.loop3.water2.frame124.chk
%nprocshared=20
%mem=10GB
%nosave
#b3lyp/svp scf=(tight,noincore,xqc) Test 
#IOP(5/87=12) Density=Current Pop=(MK,readradii) iop(6/33=2) iop(6/42=6)

holoCaM.loop3.water2.frame124 

   0  1 
C        102.13853       89.59622        7.91204
C        102.42979       88.23196        8.45426
O        103.48870       88.03626        9.03510
H        101.22256       89.99596        8.39574
H        102.98242       90.28804        8.12292
H        101.98370       89.53890        6.81530
N        101.51334       87.23191        8.32224
C        101.73335       85.91052        8.88948
C        102.91579       85.23903        8.21058
O        102.87993       85.00931        7.00902
C        100.47208       85.04310        8.77889
C        100.60007       83.76068        9.55362
O        101.70630       83.46600       10.26568
O         99.66535       82.98688        9.57204
H        100.62042       87.43860        7.84741
H        101.92761       86.05304        9.97684
H        100.24899       84.82456        7.71112
H         99.61063       85.60080        9.20794
N        104.02258       84.94265        8.93978
C        105.24833       84.39771        8.36891
C        105.04125       82.96181        7.93134
O        105.21986       82.67336        6.75624
C        106.39648       84.50829        9.39340
C        106.66685       85.98531        9.74838
C        107.70603       86.11944       10.86410
C        107.88889       87.57746       11.32400
N        108.44679       88.43328       10.27570
H        104.00268       85.17235        9.94451
H        105.54566       85.01252        7.48787
H        107.32513       84.06597        8.96984
H        106.12493       83.94535       10.31260
H        105.73917       86.47153       10.11232
H        106.99852       86.51740        8.83173
H        108.67852       85.69242       10.53862
H        107.34444       85.54106       11.74281
H        108.57996       87.58104       12.19484
H        106.91249       87.99092       11.66495
H        109.36226       88.04848        9.94850
H        107.78566       88.52035        9.47189
H        108.60366       89.38908       10.66947
N        104.65233       82.00665        8.82757
C        104.40492       80.61557        8.45244
C        103.35395       80.55839        7.35769
O        103.62623       79.99736        6.30476
C        104.07769       79.74829        9.69651
C        102.86228       80.15013       10.49215
O        103.00710       80.58947       11.75721
O        101.74113       80.02073       10.02953
H        104.51342       82.28688        9.80976
H        105.34727       80.18639        8.04075
H        104.96013       79.81214       10.37130
H        103.96970       78.68361        9.39611
N        102.16828       81.20859        7.50199
C        101.24913       81.43618        6.40688
C        100.05563       80.51954        6.43908
O         99.79618       79.87068        5.43675
H        102.00412       81.74149        8.36468
H        101.76927       81.36454        5.42623
H        100.88474       82.48450        6.47984
N         99.24002       80.47242        7.53073
C         97.95569       79.77613        7.53957
C         96.78684       80.75828        7.67321
O         95.65161       80.30424        7.60922
C         97.90781       78.67391        8.62903
C         97.94083       79.14995       10.06327
N         97.79464       78.26360       11.07443
O         98.07783       80.33102       10.32375
H         99.51711       80.99801        8.36397
H         97.81006       79.25891        6.56730
H         98.74697       77.96263        8.47042
H         96.95717       78.11384        8.49587
H         97.66527       77.25998       10.88133
H         97.79115       78.58489       12.05436
N         96.97125       82.10288        7.85732
C         95.88588       83.06882        7.95593
C         95.76589       83.69719        9.33455
O         94.91417       84.55804        9.49683
H         97.92030       82.48992        7.92506
H         94.90582       82.59931        7.72773
H         96.06142       83.86325        7.19849
N         96.53366       83.28681       10.38629
C         96.38972       83.77586       11.75067
C         97.67866       84.46872       12.24001
O         98.89585       83.84004       11.95144
C         95.92006       82.62924       12.68556
C         94.40822       82.52878       12.66971
C         93.69799       82.11522       11.52984
C         93.68898       82.91433       13.81781
C         92.29666       82.10902       11.53657
C         92.29478       82.91099       13.82013
C         91.59186       82.51489       12.67657
O         90.24364       82.52837       12.66145
H         97.23343       82.55495       10.23882
H         95.62817       84.58459       11.81949
H         96.20150       82.88673       13.72560
H         96.42023       81.66223       12.46361
H         94.22129       81.80944       10.63452
H         94.20598       83.24482       14.71064
H         91.75643       81.80108       10.65047
H         91.76424       83.22948       14.70904
H         89.72538       82.82619       13.42354
N         97.56207       84.90638       13.63828
C         98.76908       85.41040       14.31755
C         98.43639       85.40494       15.80559
O         97.53401       86.12418       16.21473
C         99.20447       86.84415       13.84086
C         99.54889       86.88480       12.32347
C        100.41279       87.32334       14.67272
C         99.96752       88.25584       11.79367
H         96.77484       85.59066       13.72595
H         99.61017       84.70234       14.14544
H         98.36160       87.54673       14.02509
H         98.65209       86.62907       11.73252
H        100.35710       86.15439       12.09875
H        100.18005       87.32550       15.75646
H        101.28984       86.66796       14.49336
H        100.68323       88.36817       14.42512
H        100.92243       88.59450       12.24067
H        100.12378       88.18675       10.69607
H         99.16935       89.00218       11.99031
N         99.10234       84.58766       16.67024
C         98.77464       84.49806       18.09255
C         99.50965       85.55749       18.89009
O        100.24225       86.33653       18.30211
C         99.10583       83.08542       18.61476
O        100.48394       82.82580       18.54214
H         99.84245       83.97707       16.29271
H         97.67955       84.63583       18.23517
H         98.52164       82.33071       18.03760
H         98.78558       82.96864       19.67050
H        100.63282       82.23426       17.75960
N         99.37864       85.64162       20.24157
C        100.15213       86.56096       21.07248
C        101.64043       86.26301       20.95964
O        102.41658       87.17868       20.74038
C         99.72192       86.44381       22.53861
H         98.71885       84.99781       20.70844
H         99.95500       87.61289       20.76262
H         99.88667       85.41516       22.92396
H        100.29893       87.15891       23.16437
H         98.64360       86.69447       22.63413
N        102.09204       84.97849       21.07134
C        103.50025       84.59337       20.97293
C        104.13546       85.10721       19.69291
O        105.14719       85.79301       19.76736
C        103.62420       83.06370       21.03742
H        101.39175       84.23530       21.21212
H        104.05338       85.01561       21.84077
H        104.69128       82.75921       20.98940
H        103.19471       82.68603       21.98985
H        103.07878       82.58643       20.19434
N        103.57196       84.84341       18.48384
C        104.09440       85.34222       17.21224
C        104.20467       86.85949       17.22279
O        105.25442       87.38228       16.87704
C        103.18307       84.89744       16.04686
C        103.24031       83.37756       15.81735
C        102.33328       82.96013       14.69551
O        101.35544       82.06353       14.92129
O        102.48694       83.41402       13.57267
H        102.70159       84.29031       18.47859
H        105.11053       84.92690       17.02468
H        103.52685       85.39095       15.11051
H        102.13748       85.21799       16.25031
H        102.94347       82.83215       16.73700
H        104.28171       83.08441       15.56148
N        103.16312       87.62767       17.63203
C        103.20385       89.07178       17.64997
H        102.25799       89.46648       18.08130
H        104.05103       89.42553       18.27430
H        103.30880       89.45603       16.61427
H        102.31800       87.16852       17.96929
Ca        99.11941       81.67764       12.57632
O        100.56516       79.02258       13.16644
H        100.00486       78.23446       12.95608
H        100.52593       79.09741       14.15282
O         97.96871       81.44535       15.13462
H         98.86777       81.48955       15.54474
H         97.98041       80.60912       14.60349

Ca 1.0



