%chk=holoCaM.loop3.water1.frame115.chk
%nprocshared=20
%mem=10GB
%nosave
#b3lyp/svp scf=(tight,noincore,xqc) Test 
#IOP(5/87=12) Density=Current Pop=(MK,readradii) iop(6/33=2) iop(6/42=6)

holoCaM.loop3.water1.frame115 

   0  1 
C         83.93485       18.53963       13.02825
C         82.84564       17.71474       13.64861
O         82.82743       17.57594       14.86310
H         84.92089       18.07566       13.24240
H         83.81245       18.60733       11.92622
H         83.91137       19.56529       13.44959
N         81.92246       17.09823       12.86084
C         80.86604       16.23983       13.36949
C         81.27996       14.81250       13.05978
O         80.79321       14.23160       12.10405
C         79.51608       16.64813       12.72381
C         78.40416       15.87419       13.35974
O         78.17516       16.06213       14.66953
O         77.77322       15.03774       12.73275
H         82.01034       17.18462       11.83620
H         80.76663       16.33609       14.47481
H         79.55284       16.46738       11.62733
H         79.31532       17.72799       12.89306
N         82.28509       14.23981       13.78315
C         82.93405       12.97874       13.42383
C         82.03301       11.74679       13.47138
O         82.43057       10.75544       12.87291
C         84.18188       12.74205       14.31032
C         85.27373       13.80644       14.07924
C         86.42629       13.65394       15.08049
C         87.53139       14.68594       14.80876
N         88.58460       14.60819       15.82094
H         82.66249       14.78075       14.57580
H         83.27638       13.07762       12.36863
H         84.63304       11.75009       14.08551
H         83.85910       12.74244       15.37531
H         84.86066       14.82957       14.19873
H         85.65536       13.70531       13.03922
H         86.85792       12.63127       15.01729
H         86.02531       13.80995       16.10638
H         87.09988       15.71174       14.81764
H         87.96927       14.49919       13.80262
H         88.19034       14.83585       16.76291
H         89.00569       13.65122       15.83621
H         89.33065       15.30472       15.59315
N         80.84714       11.68496       14.15354
C         80.01829       10.46952       14.11649
C         79.30511       10.29007       12.76223
O         78.69021        9.25274       12.55892
C         79.03554       10.38262       15.31249
C         78.08601       11.53274       15.38551
O         77.39314       11.81971       14.43119
O         77.99762       12.28365       16.49136
H         80.55420       12.48912       14.72791
H         80.69097        9.59329       14.25695
H         79.61671       10.34887       16.26043
H         78.45776        9.43645       15.23732
N         79.37533       11.23891       11.78122
C         78.84938       11.09610       10.43093
C         77.33945       11.12366       10.27834
O         76.89995       11.03772        9.13990
H         79.90865       12.09071       11.95565
H         79.25427       10.16252        9.98289
H         79.23159       11.94660        9.82412
N         76.47316       11.21923       11.32797
C         75.02679       11.15158       11.13627
C         74.43509       12.35601       10.39953
O         73.34072       12.20763        9.87317
C         74.26100       10.86857       12.45181
C         74.31116       11.95350       13.50016
N         73.54968       11.84209       14.61193
O         75.02175       12.93418       13.35602
H         76.84574       11.24433       12.27665
H         74.84527       10.25466       10.50141
H         74.64203        9.92825       12.90769
H         73.19379       10.70768       12.18729
H         72.94307       11.02138       14.75504
H         73.54798       12.58898       15.32082
N         75.04852       13.57982       10.35698
C         74.50438       14.71725        9.61345
C         73.88471       15.80476       10.48595
O         73.41461       16.78524        9.92821
H         75.93004       13.72310       10.87149
H         73.69586       14.38403        8.92655
H         75.30972       15.13833        8.97442
N         73.76455       15.66591       11.83682
C         73.00825       16.56681       12.70622
C         73.81524       17.02610       13.90346
O         74.37360       16.19372       14.60457
C         71.78273       15.80354       13.24421
C         70.63465       15.85884       12.27571
C         70.36102       14.81396       11.38185
C         69.80589       16.99387       12.28857
C         69.26512       14.90846       10.51337
C         68.71083       17.08115       11.43240
C         68.43428       16.03748       10.54067
O         67.37372       16.10939        9.71174
H         74.14144       14.82152       12.27368
H         72.64742       17.47127       12.16730
H         71.40827       16.27590       14.18081
H         72.05431       14.76323       13.53305
H         70.99318       13.93510       11.35453
H         70.00318       17.80822       12.97637
H         69.05674       14.10206        9.82239
H         68.07806       17.95931       11.46823
H         66.77221       16.86847        9.71552
N         73.80676       18.34896       14.25707
C         74.39518       18.85831       15.49218
C         73.31989       19.49975       16.37390
O         72.76929       20.53166       16.02134
C         75.59254       19.82077       15.20386
C         75.21914       21.01030       14.27045
C         76.75997       19.00105       14.63019
C         76.37541       21.97017       13.98727
H         73.30644       19.01852       13.65415
H         74.81233       18.01514       16.07964
H         75.94076       20.22931       16.17973
H         74.42180       21.61764       14.73845
H         74.84818       20.63726       13.29301
H         76.49612       18.56232       13.64473
H         77.67562       19.61572       14.52492
H         77.01589       18.18599       15.33724
H         77.18125       21.47057       13.41253
H         76.00573       22.81359       13.36614
H         76.78543       22.37645       14.93496
N         72.97159       18.91833       17.56060
C         72.07222       19.53363       18.54123
C         72.76792       20.71366       19.21787
O         73.86770       21.05018       18.81434
C         71.65863       18.47795       19.58884
O         72.77683       18.00676       20.28838
H         73.38517       18.00356       17.79075
H         71.13398       19.86700       18.04478
H         71.16149       17.63621       19.05444
H         70.92829       18.90845       20.30685
H         72.46192       17.23211       20.82285
N         72.21705       21.37635       20.27360
C         72.92774       22.42631       21.00636
C         74.19669       21.88585       21.65335
O         75.25988       22.44739       21.43600
C         72.03410       23.02601       22.09610
H         71.27194       21.10893       20.58884
H         73.18975       23.25409       20.30879
H         72.58021       23.83551       22.62855
H         71.12329       23.46461       21.63779
H         71.73049       22.25509       22.83575
N         74.14728       20.78334       22.45707
C         75.31149       20.21141       23.13358
C         76.42829       19.90536       22.15723
O         77.54989       20.34154       22.37907
C         74.90938       18.92623       23.87326
H         73.23432       20.31942       22.58002
H         75.68954       20.93129       23.89312
H         74.51373       18.16663       23.16437
H         75.78587       18.49418       24.40300
H         74.12389       19.14913       24.62630
N         76.18140       19.17628       21.03789
C         77.20447       18.83715       20.05329
C         77.86506       20.08687       19.49493
O         79.08530       20.16210       19.49237
C         76.61411       17.96781       18.92012
C         76.06579       16.64447       19.48792
C         75.72718       15.65246       18.42537
O         76.34930       14.46127       18.43102
O         74.87817       15.89169       17.58319
H         75.21158       18.86818       20.87966
H         77.99453       18.22373       20.54249
H         77.43652       17.73475       18.20779
H         75.81706       18.51166       18.36640
H         75.16125       16.81746       20.10309
H         76.84148       16.18173       20.13477
N         77.11073       21.12705       19.05464
C         77.64664       22.36939       18.54104
H         78.75378       22.35812       18.47758
H         77.23196       22.55362       17.52829
H         77.33742       23.20336       19.20733
H         76.09736       21.05129       19.12500
Ca        77.51643       14.39382       15.97200
O         75.04594       12.31758       17.29984
H         75.24946       11.38518       17.03900
H         74.86890       12.27509       18.27248

Ca 1.0



