%chk=holoCaM-CaMKII.loop4.water2.frame274.chk
%nprocshared=20
%mem=10GB
%nosave
#b3lyp/svp scf=(tight,noincore,xqc) Test 
#IOP(5/87=12) Density=Current Pop=(MK,readradii) iop(6/33=2) iop(6/42=6)

holoCaM-CaMKII.loop4.water2.frame274 

   -3  1 
C         69.34734       27.99273       85.32769
C         69.05089       27.02183       86.42750
O         67.88849       26.83572       86.75293
H         70.43710       28.04860       85.12162
H         68.83018       27.66491       84.40155
H         68.98547       28.99976       85.61835
N         70.05864       26.33982       87.03327
C         69.82003       25.34243       88.06211
C         69.27393       25.97031       89.33302
O         69.84006       26.94801       89.80209
C         71.11620       24.59612       88.39127
C         70.83640       23.33122       89.13679
O         71.76483       22.60693       89.42778
O         69.57539       22.91323       89.36015
H         71.02602       26.49689       86.70949
H         69.11478       24.59617       87.63638
H         71.82002       25.24822       88.95245
H         71.60716       24.27666       87.44567
N         68.20908       25.41451       89.97497
C         67.60444       25.96325       91.17825
C         67.91039       25.05629       92.37165
O         68.56805       25.53363       93.28719
C         66.09224       26.21183       90.89094
C         65.97385       27.27529       89.75896
C         65.32691       26.64951       92.14838
C         64.55942       27.52676       89.24098
H         67.79335       24.55790       89.59354
H         68.06082       26.94930       91.42528
H         65.64123       25.25633       90.54770
H         66.55879       26.93947       88.88126
H         66.40604       28.23951       90.10707
H         65.72779       27.60532       92.54380
H         64.24696       26.77011       91.92435
H         65.39862       25.86850       92.93369
H         64.12320       26.59016       88.83971
H         63.90156       27.94086       90.02920
H         64.60756       28.26990       88.41506
N         67.47807       23.76128       92.46038
C         67.74804       22.93972       93.64978
C         69.22179       22.53392       93.81933
O         69.54366       21.95600       94.84857
C         66.81970       21.70540       93.71543
C         67.05283       20.65516       92.66805
O         67.92642       20.78009       91.82769
O         66.29372       19.54342       92.67649
H         66.88015       23.38838       91.70983
H         67.46350       23.55323       94.53477
H         65.76524       22.05009       93.64398
H         66.94794       21.21830       94.70676
N         70.17333       22.82135       92.88371
C         71.59494       22.56864       93.07698
C         72.00337       21.10708       93.08052
O         72.60011       20.67260       94.05559
H         69.90562       23.31926       92.02485
H         71.92355       23.06251       94.01899
H         72.15573       23.04740       92.24615
N         71.79841       20.31630       91.98506
C         72.35874       18.96498       91.84057
C         73.33349       18.86517       90.65336
O         73.93515       17.81458       90.48407
C         71.22727       17.90532       91.80958
C         70.25361       18.01151       90.67073
O         70.49447       18.83320       89.64691
O         69.22962       17.34858       90.67737
H         71.25783       20.71347       91.20613
H         72.96722       18.72020       92.73802
H         70.65145       18.03421       92.75077
H         71.65463       16.87956       91.80596
N         73.56487       19.92174       89.81621
C         74.54926       19.94852       88.74380
C         73.93167       20.10012       87.36521
O         74.66784       20.41590       86.44040
H         73.05452       20.79187       89.95583
H         75.19626       19.04665       88.73475
H         75.20853       20.82462       88.93422
N         72.62260       19.79702       87.12455
C         72.01317       19.81399       85.79555
C         70.72991       20.63120       85.77902
O         70.32037       21.14814       86.80815
C         71.74411       18.35717       85.35324
C         73.06627       17.61864       85.08012
C         72.83923       16.20432       84.61773
N         72.30078       15.28239       85.44832
O         73.16561       15.88095       83.48520
H         72.04522       19.45387       87.90091
H         72.69278       20.28370       85.05000
H         71.16657       18.34365       84.40496
H         71.14160       17.83531       86.12973
H         73.70994       17.59654       85.98446
H         73.60689       18.17484       84.28160
H         72.04236       15.53018       86.41423
H         72.16133       14.31184       85.12992
N         70.05879       20.81075       84.60447
C         68.83690       21.59609       84.46015
C         67.74646       20.70854       83.87546
O         67.97473       20.11948       82.82639
C         69.10940       22.81829       83.53833
C         67.85143       23.69032       83.37751
C         70.24850       23.68796       84.09812
H         70.45275       20.39410       83.74624
H         68.50434       21.99278       85.44144
H         69.41708       22.45591       82.53183
H         67.52353       24.08771       84.36186
H         68.06284       24.54766       82.70338
H         67.01808       23.11018       82.92977
H         69.98828       24.07442       85.10662
H         71.19111       23.10610       84.17181
H         70.44100       24.54997       83.42413
N         66.52256       20.60004       84.47635
C         65.42995       19.78845       83.93003
C         64.29996       20.67562       83.43019
O         64.40666       21.88996       83.54245
C         64.94957       18.70703       84.93115
C         64.01957       19.17888       86.02958
N         64.40743       20.05532       86.98013
O         62.88264       18.73103       86.06645
H         66.35270       21.16259       85.31792
H         65.80545       19.23075       83.04477
H         65.82621       18.17783       85.36084
H         64.38233       17.95208       84.34298
H         65.36163       20.42601       87.01648
H         63.74544       20.34650       87.71375
N         63.20320       20.14248       82.81315
C         62.17814       20.98307       82.19763
C         61.43775       21.85431       83.20463
O         60.89162       22.87380       82.80521
C         61.15771       20.13829       81.40917
C         60.28931       21.01621       80.54148
C         60.86372       21.71113       79.46323
C         58.91716       21.16178       80.80020
C         60.08144       22.53993       78.65820
C         58.13621       21.99989       79.99668
C         58.71739       22.69120       78.92211
O         57.97847       23.50231       78.13919
H         63.13956       19.11818       82.71065
H         62.72367       21.64474       81.48830
H         60.55160       19.55293       82.13688
H         61.67821       19.41486       80.74509
H         61.91944       21.60793       79.24402
H         58.45571       20.64130       81.63015
H         60.53891       23.06684       77.83027
H         57.08141       22.11369       80.21146
H         57.03254       23.63996       78.28837
N         61.34860       21.50520       84.51843
C         60.72410       22.35895       85.52272
C         61.53411       23.63560       85.62851
O         60.99395       24.72189       85.47531
C         60.68412       21.62521       86.88526
C         59.97290       22.43268       87.98117
C         59.97359       21.67496       89.27886
O         58.92024       21.35437       89.80578
O         61.13950       21.35378       89.87299
H         61.75410       20.60901       84.81819
H         59.67314       22.57763       85.22739
H         61.71635       21.39027       87.21592
H         60.13971       20.66387       86.75393
H         58.92611       22.63539       87.66401
H         60.48740       23.40301       88.14585
N         62.87051       23.54627       85.87030
C         63.76603       24.69043       86.00170
C         63.92837       25.46881       84.69913
O         64.54503       26.52522       84.73293
C         65.15062       24.19282       86.46908
C         65.07281       23.52272       87.85640
C         66.34764       22.84226       88.25719
O         66.41524       22.22497       89.44986
O         67.31293       22.81360       87.51271
H         63.26375       22.59938       85.97563
H         63.34956       25.37569       86.77256
H         65.87401       25.03477       86.52781
H         65.52224       23.46404       85.71512
H         64.28965       22.74273       87.88566
H         64.80655       24.29098       88.60783
N         63.43128       25.01689       83.51325
C         63.57262       25.75629       82.27876
H         63.06063       26.73783       82.36554
H         64.64732       25.91163       82.04711
H         63.10788       25.18749       81.44422
H         62.94948       24.11452       83.46450
Ca        69.34234       20.70968       89.42476
O         65.60658       19.34934       89.45430
H         64.79748       19.63839       89.94582
H         66.34835       19.44668       90.09913
O         67.75993       18.52261       87.40841
H         68.54553       17.92605       87.32610
H         67.01867       17.91888       87.66665

Ca 1.0



