%chk=holoCaM.loop3.water2.frame469.chk
%nprocshared=20
%mem=10GB
%nosave
#b3lyp/svp scf=(tight,noincore,xqc) Test 
#IOP(5/87=12) Density=Current Pop=(MK,readradii) iop(6/33=2) iop(6/42=6)

holoCaM.loop3.water2.frame469 

   0  1 
C         20.82128       50.15965       78.28021
C         20.50039       49.07560       79.26031
O         21.36770       48.27740       79.60092
H         21.87236       50.09727       77.93404
H         20.14270       50.05462       77.40709
H         20.64797       51.15353       78.74802
N         19.24547       48.99894       79.76302
C         18.80370       47.99884       80.71519
C         18.42749       46.70993       79.97037
O         17.46700       46.70500       79.20849
C         17.66172       48.62253       81.51893
C         17.10296       47.69874       82.52432
O         17.98331       47.04189       83.32741
O         15.90995       47.58871       82.61790
H         18.57272       49.72804       79.47061
H         19.63982       47.80116       81.43510
H         16.85126       48.91883       80.82140
H         18.04119       49.53321       82.03346
N         19.23442       45.62573       80.06416
C         19.20798       44.43544       79.20076
C         18.05262       43.48041       79.48205
O         17.39211       43.03942       78.54892
C         20.54811       43.68892       79.40100
C         20.77444       42.45545       78.50974
C         21.05842       42.73417       77.01854
C         21.28155       41.39119       76.27402
N         22.39477       41.45911       75.32730
H         20.04222       45.73146       80.68650
H         19.17232       44.77316       78.14678
H         20.59444       43.34648       80.46019
H         21.38985       44.40090       79.24898
H         19.93435       41.74221       78.62805
H         21.69375       41.96706       78.90354
H         21.98209       43.35198       76.97686
H         20.25423       43.31135       76.50939
H         20.34336       41.08172       75.75830
H         21.52733       40.58366       76.99814
H         23.27042       41.71292       75.84284
H         22.53956       40.51245       74.90455
H         22.20659       42.15439       74.57212
N         17.81590       43.06616       80.75120
C         16.75920       42.13139       81.15158
C         15.43282       42.83288       81.38914
O         14.41479       42.15706       81.47787
C         17.16464       41.32396       82.41764
C         17.43601       42.14948       83.65866
O         17.45825       41.62659       84.75927
O         17.71344       43.44921       83.52337
H         18.40270       43.51531       81.45519
H         16.60504       41.40090       80.32246
H         18.08020       40.74204       82.17985
H         16.36254       40.60216       82.66913
N         15.36846       44.18833       81.50021
C         14.13489       44.91133       81.71629
C         13.63256       44.75182       83.12187
O         12.54912       44.21998       83.32182
H         16.22699       44.74787       81.42339
H         13.38343       44.62679       80.94962
H         14.32994       45.99483       81.60020
N         14.37400       45.25324       84.15132
C         13.91223       45.31278       85.53515
C         14.06313       46.71790       86.14724
O         13.82185       46.86975       87.33244
C         14.63795       44.23941       86.35944
C         16.03575       44.61569       86.74105
N         16.46733       44.50172       88.01379
O         16.78795       45.04015       85.89404
H         15.30960       45.62213       83.92816
H         12.83813       45.03708       85.57475
H         14.64384       43.29868       85.76557
H         14.06260       44.05492       87.28877
H         15.84844       44.12998       88.74787
H         17.43037       44.76848       88.26346
N         14.46040       47.78597       85.39188
C         14.52370       49.15911       85.86202
C         15.91192       49.61831       86.27525
O         16.03716       50.79679       86.58580
H         14.56021       47.66286       84.39087
H         13.82370       49.30653       86.71111
H         14.16125       49.81294       85.03832
N         16.97250       48.76037       86.39456
C         18.24145       49.14416       87.02432
C         19.46110       48.66584       86.23988
O         19.40804       47.58333       85.67293
C         18.31067       48.49828       88.42675
C         17.07689       48.74112       89.27664
C         16.32133       47.64524       89.73401
C         16.65906       50.03900       89.61478
C         15.15598       47.83860       90.48023
C         15.48843       50.23202       90.35641
C         14.72772       49.13489       90.78151
O         13.58826       49.32251       91.47640
H         16.82817       47.76449       86.17661
H         18.30140       50.24958       87.14893
H         19.20970       48.87793       88.95620
H         18.42614       47.40164       88.28534
H         16.63117       46.63687       89.50986
H         17.22551       50.90256       89.29475
H         14.58570       46.97863       90.81401
H         15.16472       51.23582       90.59728
H         13.26194       50.21121       91.68088
N         20.62939       49.37685       86.24323
C         21.83985       48.96840       85.51975
C         23.04314       48.82117       86.47276
O         23.41304       49.79597       87.11709
C         22.13824       50.02698       84.40942
C         20.88901       50.27088       83.52117
C         23.33872       49.63568       83.53267
C         21.12017       51.32732       82.44157
H         20.64977       50.27852       86.74570
H         21.67579       47.99393       85.01320
H         22.38805       50.98446       84.91945
H         20.06071       50.63195       84.16496
H         20.55776       49.33029       83.03026
H         23.10077       48.75341       82.90571
H         23.62685       50.48117       82.87481
H         24.22364       49.42673       84.14432
H         21.76292       50.91158       81.63801
H         20.15155       51.62062       81.98774
H         21.60353       52.22938       82.87494
N         23.73703       47.63998       86.55951
C         25.02767       47.48350       87.24953
C         26.16891       47.88824       86.32995
O         25.88814       48.20948       85.19433
C         25.22235       46.02631       87.68967
O         25.41191       45.20590       86.56566
H         23.40191       46.84587       86.00098
H         25.04357       48.13755       88.14939
H         24.31427       45.71387       88.25176
H         26.11356       45.95075       88.35070
H         25.21339       44.27740       86.84829
N         27.46940       47.94405       86.73624
C         28.51470       48.52040       85.88472
C         28.99299       47.60070       84.77036
O         29.41484       48.11233       83.74059
C         29.67938       49.02174       86.72870
H         27.68961       47.71882       87.71896
H         28.08516       49.42912       85.40244
H         30.17376       48.17221       87.24048
H         30.41711       49.56500       86.09984
H         29.28680       49.73099       87.49051
N         28.97524       46.24457       84.89000
C         29.25283       45.36100       83.75862
C         28.10694       45.45046       82.75887
O         28.35628       45.50003       81.56262
C         29.49771       43.92632       84.23541
H         28.69363       45.82557       85.79012
H         30.19751       45.66354       83.25246
H         30.42967       43.91312       84.84484
H         28.66560       43.53786       84.85654
H         29.65416       43.25396       83.36409
N         26.82199       45.57501       83.20073
C         25.67834       45.84978       82.33073
C         25.87172       47.18813       81.61684
O         25.55633       47.29559       80.44081
C         24.38797       45.82764       83.18037
C         23.09578       45.74396       82.35742
C         21.91030       45.44637       83.23813
O         20.84249       45.18626       82.72589
O         22.01566       45.38577       84.57892
H         26.65674       45.52734       84.21718
H         25.59662       45.02659       81.58708
H         24.35401       46.69152       83.87336
H         24.42336       44.89634       83.78897
H         23.18439       44.89563       81.64625
H         22.91902       46.67147       81.77054
N         26.49472       48.21785       82.25818
C         26.93756       49.43556       81.62178
H         27.96637       49.26886       81.23873
H         26.26248       49.75122       80.80268
H         27.00355       50.24719       82.38144
H         26.86008       48.05389       83.19402
Ca        18.74458       45.19639       84.38348
O         20.38011       42.76530       85.09864
H         21.12063       42.34027       84.60487
H         19.68991       42.06504       85.11547
O         19.88431       44.75700       87.18565
H         19.99949       43.79843       87.40468
H         20.60238       45.21458       87.68932

Ca 1.0



