%chk=holoCaM-CaMKII.loop2.water2.frame346.chk
%nprocshared=20
%mem=10GB
%nosave
#b3lyp/svp scf=(tight,noincore,xqc) Test 
#IOP(5/87=12) Density=Current Pop=(MK,readradii) iop(6/33=2) iop(6/42=6)

holoCaM-CaMKII.loop2.water2.frame346 

   -2  1 
C         29.94499       71.80870       65.49685
C         30.57841       72.94149       66.25156
O         31.69944       73.32313       65.94884
H         29.00983       72.17085       65.01599
H         30.62150       71.42455       64.70524
H         29.69075       70.98364       66.19440
N         29.87587       73.55426       67.23939
C         30.34422       74.73284       67.95562
C         31.57304       74.46234       68.81690
O         31.52375       73.60840       69.69084
C         29.20016       75.28111       68.82472
C         29.61306       76.53173       69.52420
O         30.04077       77.47102       68.87688
O         29.54085       76.61098       70.86598
H         28.92571       73.20117       67.43751
H         30.58062       75.51744       67.20112
H         28.87694       74.52513       69.57232
H         28.33514       75.51903       68.16998
N         32.69703       75.21670       68.64240
C         33.91244       75.09976       69.43835
C         34.28800       76.43017       70.10940
O         35.41295       76.53269       70.58107
C         35.03930       74.62969       68.50747
H         32.70217       75.92331       67.89330
H         33.81600       74.32800       70.23300
H         35.21480       75.36174       67.69074
H         35.98459       74.48827       69.07520
H         34.76831       73.64964       68.05781
N         33.41007       77.48065       70.22464
C         33.81714       78.78807       70.77013
C         32.68309       79.75075       71.22096
O         33.02548       80.81343       71.72181
C         34.76053       79.47876       69.75652
C         34.13300       79.56454       68.39559
O         32.96873       80.20471       68.23642
O         34.66130       79.02860       67.43444
H         32.45368       77.34205       69.88978
H         34.38459       78.61440       71.71195
H         35.70426       78.90075       69.66552
H         35.03269       80.49595       70.11107
N         31.35096       79.44946       71.17425
C         30.29605       80.26273       71.78637
C         29.95272       81.60002       71.13496
O         29.05997       82.26016       71.64756
H         31.05624       78.54672       70.80976
H         30.55477       80.43319       72.85371
H         29.35536       79.66904       71.76721
N         30.57802       82.07031       70.02167
C         30.26196       83.36245       69.38278
C         28.86979       83.44602       68.72166
O         28.56116       84.48961       68.16212
C         31.33901       83.69111       68.32337
C         31.17738       82.86810       67.04340
N         32.36695       83.00622       66.20811
O         30.90312       81.53427       67.35645
H         31.35733       81.51183       69.65688
H         30.34347       84.14686       70.16688
H         32.34107       83.52935       68.78002
H         31.27505       84.75975       68.02582
H         33.18315       82.53788       66.66526
H         32.19097       82.57363       65.27552
N         27.98472       82.40811       68.73492
C         26.64835       82.46649       68.15917
C         26.54021       82.20626       66.65999
O         25.40867       82.17715       66.19856
H         28.20884       81.56997       69.27692
H         26.15860       83.42577       68.43516
H         26.05031       81.65560       68.62958
N         27.61160       81.98334       65.83649
C         27.45625       81.65506       64.40876
C         28.13968       80.33611       64.04934
O         28.84493       79.76671       64.86464
C         28.03570       82.79037       63.51998
C         27.24112       84.09032       63.65265
O         29.38490       83.01362       63.84525
H         28.56312       82.04523       66.22167
H         26.38285       81.53133       64.14815
H         27.95248       82.48679       62.45056
H         29.82638       83.37360       63.03138
H         27.66528       84.85676       62.96809
H         26.18334       83.91702       63.35765
H         27.27511       84.47681       64.69114
N         28.00956       79.84719       62.77944
C         28.80311       78.76210       62.20901
C         29.90684       79.41720       61.40059
O         29.64544       80.34792       60.65196
C         27.91670       77.79142       61.35109
C         27.18472       76.79668       62.29259
C         28.75476       77.01858       60.30291
C         26.21536       75.84312       61.58336
H         27.41953       80.37467       62.11931
H         29.31089       78.16333       62.99541
H         27.17949       78.39266       60.77408
H         26.60679       77.36421       63.05163
H         27.94263       76.17862       62.82626
H         28.11985       76.37785       59.66064
H         29.24232       77.72353       59.59704
H         29.53338       76.39634       60.78890
H         26.73178       75.18926       60.85138
H         25.74690       75.17083       62.33305
H         25.41729       76.41601       61.06804
N         31.17577       78.92664       61.48761
C         32.31940       79.50267       60.79153
C         32.68951       78.61985       59.63080
O         32.03609       77.61891       59.40447
C         33.54254       79.61962       61.73288
C         33.17744       80.16580       63.06383
O         32.39540       79.41358       63.85039
O         33.60666       81.23843       63.45554
H         31.33615       78.07764       62.04374
H         32.05802       80.51222       60.40604
H         34.31901       80.25361       61.25430
H         33.97824       78.61497       61.92881
N         33.74161       78.94197       58.83597
C         34.14670       78.10355       57.72230
C         34.63472       76.72987       58.18792
O         34.07570       75.75174       57.70404
C         35.15743       78.85658       56.83996
C         35.33971       78.16131       55.51537
C         34.64716       78.63062       54.38461
C         36.17384       77.03862       55.39426
C         34.78281       77.98441       53.15516
C         36.31671       76.40178       54.15698
C         35.61968       76.87257       53.03975
H         34.24688       79.82161       59.01246
H         33.24973       77.96491       57.07412
H         36.12868       79.06042       57.33316
H         34.69701       79.85006       56.63979
H         33.98658       79.48640       54.45825
H         36.71752       76.66315       56.25214
H         34.23599       78.34603       52.29384
H         36.96592       75.54149       54.06404
H         35.72564       76.37590       52.08454
N         35.63529       76.52994       59.10827
C         36.11890       75.20746       59.48600
C         35.08114       74.38835       60.23678
O         35.16789       73.17016       60.19176
C         37.37116       75.49772       60.32036
C         37.02455       76.81953       60.96868
C         36.36178       77.57110       59.81376
H         36.42772       74.62559       58.58850
H         37.69299       74.68290       61.00458
H         38.20997       75.71245       59.61937
H         36.25764       76.61646       61.75026
H         37.87148       77.35954       61.44348
H         35.71827       78.35437       60.25196
H         37.11316       78.01152       59.12587
N         34.06699       74.97268       60.93363
C         33.00480       74.19284       61.56239
C         32.16350       73.54340       60.47861
O         31.99357       72.33247       60.49463
C         32.13205       75.08133       62.46914
C         32.95889       75.65389       63.63986
C         32.15461       76.49164       64.59089
O         32.76889       77.06228       65.64347
O         30.95989       76.67147       64.42340
H         34.03291       76.00010       60.99720
H         33.44166       73.40875       62.22151
H         31.30649       74.46474       62.89001
H         31.68561       75.90023       61.87295
H         33.78349       76.28579       63.25014
H         33.40274       74.81528       64.21840
N         31.64350       74.30455       59.47624
C         30.86551       73.79021       58.37049
H         29.88786       74.31543       58.33645
H         31.40713       73.99274       57.42123
H         30.68583       72.69917       58.45127
H         31.83639       75.30946       59.47421
Ca        31.56198       80.20795       65.70409
O         28.01798       77.29504       66.10837
H         27.79336       76.37250       65.83181
H         28.96283       77.40859       65.83865
O         28.49014       79.49472       67.98424
H         27.84288       79.15578       68.65305
H         29.27982       79.76182       68.51999

Ca 1.0



