%chk=holoCaM-CaMKII.loop3.water3.frame237.chk
%nprocshared=20
%mem=10GB
%nosave
#b3lyp/svp scf=(tight,noincore,xqc) Test 
#IOP(5/87=12) Density=Current Pop=(MK,readradii) iop(6/33=2) iop(6/42=6)

holoCaM-CaMKII.loop3.water3.frame237 

   0  1 
C         77.68255       15.25221       27.97162
C         77.71882       14.90870       26.51152
O         78.45663       14.01179       26.13092
H         76.95708       16.06821       28.17757
H         77.37218       14.35811       28.55237
H         78.68806       15.57917       28.30556
N         76.92223       15.57433       25.63242
C         76.84879       15.24497       24.21577
C         78.19320       15.49136       23.52534
O         78.64767       16.62538       23.47283
C         75.72162       16.07930       23.57692
C         75.41420       15.71951       22.16470
O         76.04378       14.70708       21.55372
O         74.56190       16.34834       21.56680
H         76.30412       16.31407       26.00184
H         76.56207       14.17044       24.13807
H         75.99128       17.15586       23.62376
H         74.78335       15.92229       24.15353
N         78.89483       14.44366       23.00772
C         80.22504       14.55600       22.40140
C         80.16063       14.95157       20.92745
O         81.15976       15.40628       20.38893
C         80.96410       13.19404       22.45943
C         81.06750       12.61859       23.88514
C         81.75532       11.24476       23.92881
C         83.25876       11.29819       23.63770
N         83.84792        9.96328       23.74811
H         78.48791       13.51232       23.13100
H         80.82671       15.28908       22.98297
H         81.98145       13.32730       22.03500
H         80.41965       12.45783       21.82517
H         80.04421       12.46549       24.28331
H         81.59115       13.32836       24.55980
H         81.26226       10.55433       23.21051
H         81.62497       10.83595       24.95420
H         83.74507       11.97484       24.37475
H         83.44555       11.69175       22.61664
H         83.42896        9.32638       23.03166
H         84.87816       10.02780       23.58439
H         83.68200        9.57132       24.70403
N         79.06047       14.64111       20.18806
C         78.94645       14.76709       18.73403
C         77.83684       15.72243       18.30416
O         77.64735       15.88906       17.10655
C         78.77202       13.35611       18.10248
C         77.61275       12.51631       18.61405
O         77.47813       11.38087       18.19471
O         76.78501       12.98496       19.57363
H         78.27633       14.22947       20.69292
H         79.88436       15.18909       18.30886
H         79.70347       12.78526       18.31186
H         78.69086       13.45745       16.99731
N         77.10759       16.43590       19.20802
C         76.12725       17.44359       18.83693
C         74.85906       16.93676       18.17158
O         74.02665       17.78280       17.87372
H         77.31675       16.34545       20.20950
H         76.61518       18.18875       18.17046
H         75.81361       17.98056       19.75794
N         74.61319       15.62045       17.88424
C         73.38735       15.21764       17.18546
C         72.13473       15.35906       18.04957
O         71.04140       15.19500       17.52663
C         73.50308       13.79652       16.58872
C         73.40264       12.68585       17.59869
N         72.46022       11.72083       17.47680
O         74.18746       12.64509       18.52569
H         75.32684       14.91199       18.09921
H         73.29160       15.89286       16.30682
H         74.47212       13.71585       16.04998
H         72.69405       13.66210       15.84006
H         71.79393       11.72497       16.69110
H         72.40080       10.95583       18.16432
N         72.22146       15.61332       19.38651
C         71.07833       15.77537       20.26239
C         70.88989       14.59809       21.19248
O         69.99192       14.68992       22.01809
H         73.14257       15.67416       19.82718
H         70.13525       15.89673       19.68721
H         71.22196       16.70633       20.85591
N         71.62386       13.44002       21.09351
C         71.34759       12.27370       21.93285
C         72.59313       11.76951       22.72614
O         73.62937       12.71055       22.69169
C         70.76826       11.10663       21.10874
C         69.47465       11.47617       20.41294
C         68.25093       10.97156       20.88579
C         69.47226       12.32187       19.28877
C         67.05057       11.31867       20.25809
C         68.27249       12.66008       18.65663
C         67.05580       12.16209       19.14277
O         65.88950       12.48502       18.54808
H         72.35141       13.35099       20.37083
H         70.55717       12.54043       22.66819
H         70.57047       10.27735       21.82349
H         71.49799       10.72589       20.36360
H         68.22191       10.32051       21.75045
H         70.39688       12.71600       18.89313
H         66.11453       10.93203       20.64105
H         68.29041       13.30970       17.79032
H         65.84926       13.06455       17.77388
N         72.19075       11.53235       24.12649
C         73.17364       10.88007       25.01181
C         73.06673        9.35827       24.91956
O         71.98168        8.81915       25.09098
C         72.92659       11.35039       26.47921
C         73.07442       12.89492       26.57432
C         73.90230       10.65031       27.45271
C         72.76099       13.46615       27.95977
H         71.26344       11.05127       24.19791
H         74.19998       11.21356       24.75804
H         71.88871       11.07171       26.76900
H         72.36727       13.37421       25.86423
H         74.10663       13.19627       26.28764
H         74.95327       10.91481       27.21238
H         73.69287       10.92545       28.50464
H         73.79047        9.54842       27.40681
H         72.83907       14.57327       27.92716
H         71.72943       13.19111       28.26529
H         73.48125       13.10978       28.72319
N         74.18761        8.60593       24.74310
C         74.22064        7.14788       24.75124
C         75.02884        6.66396       25.94983
O         75.44741        7.48371       26.75278
C         74.81655        6.65037       23.42174
O         76.13705        7.09700       23.25563
H         75.09050        9.08711       24.66202
H         73.19740        6.72274       24.84186
H         74.17340        6.98322       22.57508
H         74.81548        5.54243       23.37708
H         76.10338        7.89773       22.66969
N         75.27633        5.33906       26.14783
C         76.06771        4.82693       27.26661
C         77.49476        5.35310       27.23364
O         77.95345        5.87376       28.24113
C         76.09034        3.29647       27.24632
H         74.88436        4.66338       25.47437
H         75.58719        5.12743       28.22560
H         75.05263        2.90618       27.31658
H         76.55663        2.91565       26.31346
H         76.66336        2.91521       28.11930
N         78.24985        5.26417       26.09738
C         79.63701        5.73236       25.99784
C         79.81725        7.23414       26.22298
O         80.95435        7.68650       26.19432
C         80.20326        5.37837       24.61547
H         77.82006        4.82165       25.27043
H         80.23896        5.19385       26.76261
H         79.63562        5.90735       23.81903
H         81.27370        5.66955       24.54341
H         80.13353        4.28399       24.44256
N         78.76735        8.06405       26.47261
C         78.89040        9.49121       26.71195
C         78.66927        9.74927       28.19132
O         79.54327       10.33226       28.81783
C         77.92613       10.26303       25.78157
C         78.20116        9.88542       24.31229
C         77.44118       10.70842       23.31394
O         76.10147       10.73361       23.31314
O         78.04350       11.31894       22.44925
H         77.82018        7.68639       26.50543
H         79.91831        9.84473       26.47317
H         78.08593       11.35163       25.93253
H         76.86916       10.02520       26.02681
H         77.94584        8.81825       24.15308
H         79.27948       10.00637       24.10901
N         77.57198        9.26061       28.83744
C         77.38212        9.34848       30.27228
H         76.41943        9.85182       30.49274
H         77.35332        8.32050       30.69607
H         78.20126        9.90091       30.77862
H         76.85710        8.74931       28.30696
Ca        75.12459       12.21761       20.98011
O         77.82137        9.45260       20.31981
H         78.64646        9.23853       20.82357
H         77.89934        8.93258       19.48175
O         73.90137        9.29094       21.04674
H         73.08938        8.97988       21.51994
H         73.86141        8.83709       20.16852
O         75.16644        9.81927       18.01930
H         74.36988        9.31610       17.71962
H         75.26900       10.53379       17.34232

Ca 1.0



