%chk=holoCaM-CaMKII.loop4.water1.frame465.chk
%nprocshared=20
%mem=10GB
%nosave
#b3lyp/svp scf=(tight,noincore,xqc) Test 
#IOP(5/87=12) Density=Current Pop=(MK,readradii) iop(6/33=2) iop(6/42=6)

holoCaM-CaMKII.loop4.water1.frame465 

   -3  1 
C         78.31766       66.98352       50.91160
C         78.43365       65.49359       50.94611
O         77.61921       64.84756       51.59072
H         77.45258       67.32267       51.52030
H         79.24602       67.43676       51.31624
H         78.17081       67.31425       49.86228
N         79.43924       64.87724       50.26495
C         79.60244       63.43514       50.22693
C         80.91720       63.07206       50.90148
O         81.97129       63.48541       50.43858
C         79.49466       62.96189       48.76703
C         79.47097       61.47395       48.65252
O         79.28251       60.95340       47.57108
O         79.65332       60.71720       49.74305
H         80.11716       65.45707       49.74601
H         78.76924       62.94960       50.78384
H         80.32002       63.37758       48.14971
H         78.52788       63.33184       48.36055
N         80.90171       62.35958       52.06463
C         82.06913       62.20206       52.92766
C         82.93595       61.03002       52.47478
O         84.06680       61.27714       52.07902
C         81.62544       62.13582       54.42711
C         80.81879       63.42405       54.78603
C         82.84572       61.97782       55.35267
C         80.26503       63.46263       56.21017
H         79.98134       62.09424       52.43659
H         82.68425       63.12863       52.84742
H         80.97013       61.25108       54.57577
H         79.93695       63.51728       54.11905
H         81.45464       64.32230       54.62764
H         83.52585       62.85047       55.25614
H         82.53132       61.87921       56.41130
H         83.40707       61.05303       55.10663
H         79.60508       62.58922       56.39409
H         81.07891       63.48733       56.96147
H         79.66620       64.39029       56.33930
N         82.49650       59.73374       52.51697
C         83.32498       58.60445       52.08717
C         83.75400       58.79609       50.63483
O         84.95041       58.88519       50.39560
C         82.66924       57.21401       52.36324
C         81.39398       56.94910       51.61517
O         81.35031       56.08994       50.74930
O         80.31332       57.70343       51.85226
H         81.56206       59.54862       52.88797
H         84.24571       58.60812       52.71367
H         82.46572       57.10812       53.45080
H         83.40972       56.43334       52.08193
N         82.84114       58.94417       49.62984
C         83.20527       59.29661       48.26447
C         82.77735       58.24938       47.26680
O         83.63649       57.72745       46.57028
H         81.84169       58.87747       49.85065
H         84.30217       59.45174       48.16747
H         82.71673       60.26025       48.00432
N         81.46333       57.91036       47.11933
C         80.99600       56.93579       46.13062
C         80.01858       57.53724       45.11780
O         79.61959       56.82123       44.20882
C         80.41047       55.69863       46.84591
C         79.15634       55.92963       47.64906
O         78.61411       54.90086       48.32626
O         78.61488       57.02086       47.68966
H         80.77297       58.36119       47.73548
H         81.85954       56.56524       45.53600
H         81.19129       55.29852       47.52891
H         80.18784       54.91580       46.08942
N         79.60541       58.83693       45.19075
C         78.74871       59.48430       44.20988
C         77.42465       59.98427       44.76645
O         76.73165       60.66051       44.02263
H         79.95134       59.42933       45.94891
H         78.51923       58.81401       43.35369
H         79.31003       60.35542       43.80784
N         76.96754       59.65451       46.01457
C         75.64509       60.06135       46.50499
C         75.69652       60.66249       47.90002
O         76.72977       60.61529       48.54230
C         74.65626       58.87124       46.39021
C         75.11465       57.49261       46.92438
C         75.25296       57.32453       48.41717
N         75.61776       56.11848       48.91235
O         75.02230       58.24397       49.18471
H         77.52828       59.02547       46.60186
H         75.23528       60.86998       45.86200
H         74.50928       58.71499       45.29877
H         73.66377       59.13892       46.81141
H         76.07270       57.21122       46.43844
H         74.35464       56.75071       46.59689
H         75.80258       55.32572       48.27920
H         75.71064       55.97041       49.92756
N         74.57798       61.24988       48.43164
C         74.52846       61.80584       49.78165
C         73.51958       60.99513       50.57244
O         72.33402       61.04168       50.27883
C         74.16538       63.31733       49.76039
C         74.10471       63.90190       51.18434
C         75.18246       64.11547       48.93012
H         73.71791       61.28407       47.86578
H         75.52448       61.71039       50.26766
H         73.16497       63.44461       49.29008
H         73.83060       64.97830       51.14710
H         73.33595       63.38448       51.79480
H         75.08617       63.80286       51.69438
H         76.20116       64.02346       49.36189
H         75.20520       63.75129       47.88180
H         74.90013       65.19027       48.90776
N         73.95629       60.16331       51.55558
C         73.08473       59.25786       52.29737
C         72.27874       60.04180       53.33082
O         72.53353       61.22669       53.49724
C         73.99144       58.14667       52.89736
C         73.29518       56.90721       53.40315
N         73.39464       55.74370       52.71479
O         72.67049       56.93215       54.45035
H         74.96917       60.10531       51.70968
H         72.40588       58.76591       51.56601
H         74.67137       58.55402       53.67532
H         74.64084       57.81181       52.05856
H         73.92323       55.69101       51.83105
H         72.93156       54.88980       53.05751
N         71.28764       59.45905       54.06558
C         70.56664       60.16691       55.12186
C         71.53489       60.64730       56.18763
O         71.47257       61.80759       56.56512
C         69.50935       59.26209       55.79116
C         68.75288       60.04821       56.84165
C         67.92613       61.12092       56.46343
C         68.89873       59.74423       58.20565
C         67.26368       61.87982       57.43155
C         68.24038       60.51031       59.17339
C         67.42191       61.58267       58.78847
O         66.78888       62.33576       59.71042
H         71.03559       58.48166       53.87269
H         70.04167       61.03993       54.67412
H         70.02656       58.39082       56.25112
H         68.79048       58.86954       55.04033
H         67.79864       61.37403       55.41839
H         69.53878       58.93028       58.52246
H         66.63365       62.70581       57.12584
H         68.37368       60.27499       60.22171
H         66.88204       62.17372       60.65995
N         72.45793       59.79477       56.71396
C         73.45346       60.20099       57.69845
C         74.29352       61.36008       57.17578
O         74.42683       62.35516       57.87462
C         74.32486       58.99239       58.14514
C         75.21599       58.36729       57.05655
C         75.93778       57.15591       57.57284
O         75.77168       56.06935       57.04136
O         76.78705       57.26476       58.61247
H         72.46045       58.82054       56.37940
H         72.92301       60.53852       58.61740
H         73.63757       58.20897       58.53503
H         74.97857       59.31650       58.98509
H         75.98384       59.09676       56.73771
H         74.60260       58.07255       56.18010
N         74.87296       61.30502       55.94145
C         75.74803       62.35633       55.41916
C         75.00991       63.66413       55.14296
O         75.67145       64.66015       54.88554
C         76.45372       61.89168       54.12371
C         77.25204       60.59484       54.34377
C         77.94658       60.13341       53.10601
O         79.26459       59.91572       53.14011
O         77.32501       59.88903       52.08689
H         74.70049       60.46608       55.37190
H         76.53301       62.54716       56.18536
H         77.15061       62.68813       53.77860
H         75.69053       61.72766       53.33249
H         76.58798       59.76690       54.64331
H         78.00208       60.75336       55.14949
N         73.64909       63.73277       55.14874
C         72.88831       64.93967       54.90412
H         72.23469       65.13960       55.77998
H         73.53581       65.82405       54.73658
H         72.24517       64.79165       54.01085
H         73.10667       62.88469       55.31305
Ca        79.33842       58.53321       50.03677
O         77.22730       56.68975       52.16280
H         76.79988       56.37837       52.99964
H         78.14958       56.33512       52.21145

Ca 1.0



