%chk=holoCaM.loop4.water3.frame184.chk
%nprocshared=20
%mem=10GB
%nosave
#b3lyp/svp scf=(tight,noincore,xqc) Test 
#IOP(5/87=12) Density=Current Pop=(MK,readradii) iop(6/33=2) iop(6/42=6)

holoCaM.loop4.water3.frame184 

   -3  1 
C         20.02394       63.84960       78.86421
C         20.45644       64.32531       77.50987
O         21.38710       63.76183       76.95538
H         18.97017       63.50124       78.81106
H         20.65680       63.00071       79.20216
H         20.10171       64.67483       79.60073
N         19.80798       65.36515       76.91186
C         20.10151       65.83604       75.55830
C         19.29212       67.09248       75.26939
O         18.07031       67.03694       75.28682
C         19.79811       64.69848       74.55389
C         19.74734       65.08112       73.10467
O         18.75152       64.79678       72.46000
O         20.70630       65.77363       72.47884
H         19.05236       65.82523       77.44464
H         21.17810       66.10238       75.48730
H         18.80467       64.26263       74.80104
H         20.54890       63.89521       74.66989
N         19.93589       68.27286       75.01839
C         19.25253       69.54485       74.78364
C         19.54322       70.12067       73.39385
O         18.90886       71.11098       73.05404
C         19.61992       70.58015       75.90357
C         21.12990       70.95441       75.88065
C         19.19562       70.03966       77.28270
C         21.54765       72.01988       76.89629
H         20.96246       68.27101       75.02281
H         18.15297       69.38265       74.82193
H         19.03460       71.50795       75.71538
H         21.39429       71.34233       74.87381
H         21.74034       70.06107       76.08410
H         19.34835       70.79877       78.07658
H         18.11423       69.78911       77.27976
H         19.77464       69.12928       77.54847
H         21.40643       71.66541       77.93751
H         22.63088       72.23576       76.76952
H         20.97738       72.95818       76.73737
N         20.50117       69.60660       72.55955
C         20.84737       70.19602       71.26588
C         20.83111       69.24062       70.07127
O         21.01073       69.71329       68.95799
C         22.20260       70.92189       71.35477
C         23.47275       70.19710       71.78176
O         23.56992       68.94333       72.29464
O         24.50398       70.84660       71.72438
H         21.06229       68.82324       72.88752
H         20.09844       70.97828       71.00970
H         22.07925       71.77198       72.06066
H         22.39443       71.36904       70.35433
N         20.62123       67.90674       70.20208
C         20.57586       66.97713       69.08175
C         21.84697       66.96919       68.25412
O         21.76615       67.23308       67.06269
H         20.45398       67.53738       71.13363
H         19.71421       67.24099       68.43074
H         20.40241       65.94944       69.47052
N         23.05169       66.65661       68.81029
C         24.30108       66.58013       68.04571
C         24.93079       65.18591       68.10102
O         26.05040       65.02667       67.63402
C         25.28346       67.69219       68.48615
C         25.74997       67.66497       69.91606
O         25.30726       66.74262       70.78679
O         26.54474       68.50951       70.29624
H         23.07726       66.45630       69.82083
H         24.11704       66.78338       66.96795
H         24.79826       68.67592       68.30601
H         26.18299       67.63960       67.83320
N         24.24764       64.11273       68.59487
C         24.78030       62.75747       68.63891
C         25.81747       62.52238       69.72263
O         26.21097       61.37474       69.88445
H         23.26986       64.23178       68.88830
H         25.16823       62.46278       67.63981
H         23.93679       62.07449       68.88279
N         26.28041       63.52099       70.52804
C         27.16425       63.30185       71.66801
C         26.51125       63.81733       72.93843
O         25.46089       64.44478       72.87385
C         28.50147       64.04739       71.47076
C         29.32258       63.50367       70.29673
C         30.65274       64.21121       70.20815
N         30.71838       65.54471       69.98277
O         31.68489       63.57121       70.34511
H         25.97288       64.48330       70.35945
H         27.36839       62.21724       71.80853
H         29.12406       63.93436       72.38464
H         28.29513       65.13152       71.32850
H         28.77110       63.63115       69.34157
H         29.49994       62.41722       70.46085
H         29.86230       66.10411       69.85967
H         31.63097       66.02150       69.93072
N         27.11400       63.60661       74.14030
C         26.64816       64.17274       75.39900
C         27.75021       65.06770       75.93380
O         28.86940       64.59270       76.08543
C         26.21500       63.05655       76.39640
C         27.35004       62.10940       76.82311
C         25.55860       63.67254       77.64322
H         27.97894       63.04385       74.15741
H         25.74314       64.78875       75.22107
H         25.44012       62.43984       75.88966
H         27.80529       61.61054       75.94417
H         28.13679       62.64759       77.38997
H         26.94747       61.31547       77.48752
H         25.19366       62.87493       78.32457
H         26.27760       64.31058       78.19863
H         24.68392       64.29065       77.35017
N         27.52479       66.38049       76.22445
C         28.59121       67.25835       76.69450
C         28.66880       67.22793       78.21187
O         27.87380       66.54051       78.82827
C         28.43859       68.66983       76.07578
C         27.36159       69.51582       76.71135
N         26.27771       69.93398       76.02395
O         27.49669       69.86773       77.86757
H         26.57025       66.76024       76.14296
H         29.56178       66.87270       76.31052
H         28.26027       68.55132       74.98465
H         29.39135       69.22924       76.18983
H         26.13191       69.66659       75.04604
H         25.57524       70.53446       76.48140
N         29.62154       67.92753       78.88328
C         29.75041       67.90753       80.34080
C         28.48273       68.39636       81.04032
O         27.93831       67.66728       81.85695
C         30.99751       68.68435       80.84973
C         31.02048       70.18709       80.62405
C         30.80618       71.05532       81.71123
C         31.28578       70.74679       79.35849
C         30.83421       72.44179       81.53255
C         31.31487       72.13211       79.18386
C         31.08736       72.98432       80.26586
O         31.12323       74.31875       80.07776
H         30.29080       68.45530       78.31849
H         29.92054       66.85042       80.64861
H         31.92762       68.24338       80.43148
H         31.03241       68.49330       81.94574
H         30.60926       70.66058       82.70011
H         31.49713       70.13488       78.49860
H         30.66197       73.09278       82.38007
H         31.52349       72.54297       78.20376
H         30.97812       74.94482       80.80111
N         27.95579       69.61737       80.75188
C         26.76594       70.19115       81.38323
C         25.57114       69.24313       81.32251
O         24.98182       68.97755       82.36052
C         26.46679       71.55723       80.72222
C         25.34779       72.34577       81.41265
C         25.22467       73.71581       80.80388
O         26.26923       74.56710       80.84219
O         24.17941       74.06901       80.28253
H         28.43962       70.17764       80.03732
H         26.99743       70.38427       82.45478
H         26.21573       71.41861       79.64730
H         27.39738       72.16524       80.78619
H         25.58548       72.46849       82.49077
H         24.38571       71.79692       81.31803
N         25.20031       68.64913       80.15407
C         24.11166       67.67218       80.04216
C         24.32270       66.52096       81.01410
O         23.43949       66.25931       81.81881
C         24.02588       67.12994       78.59643
C         23.59437       68.22021       77.60000
C         23.68060       67.76399       76.16970
O         23.45645       68.55283       75.26847
O         24.03988       66.50763       75.86162
H         25.75765       68.86725       79.31857
H         23.14044       68.15715       80.28891
H         23.28745       66.29883       78.53838
H         25.02449       66.73063       78.31065
H         24.25192       69.10082       77.70281
H         22.55380       68.53955       77.82724
N         25.48529       65.81537       81.01568
C         25.78099       64.73426       81.93213
H         26.65913       65.01390       82.55265
H         24.93116       64.50678       82.60802
H         26.03133       63.82059       81.35372
H         26.21703       66.07398       80.35155
Ca        22.54733       66.98593       72.85641
O         26.06652       67.69210       73.36961
H         26.95860       67.57379       72.96007
H         25.81029       68.60868       73.10340
O         22.89696       64.07951       71.42661
H         22.05060       64.16365       70.92041
H         22.91706       63.13378       71.71673
O         23.15038       63.75335       74.35006
H         23.01077       64.39393       75.08838
H         23.21004       62.87221       74.79503

Ca 1.0



