%chk=holoCaM.loop2.water3.frame369.chk
%nprocshared=20
%mem=10GB
%nosave
#b3lyp/svp scf=(tight,noincore,xqc) Test 
#IOP(5/87=12) Density=Current Pop=(MK,readradii) iop(6/33=2) iop(6/42=6)

holoCaM.loop2.water3.frame369 

   -2  1 
C        -13.38514        6.37354       78.14007
C        -14.05135        5.03559       78.06147
O        -13.71295        4.25211       77.18446
H        -12.61473        6.47328       77.34526
H        -14.14550        7.17010       78.00193
H        -12.89793        6.49348       79.12979
N        -15.01570        4.69586       78.96237
C        -15.69527        3.41196       78.90740
C        -16.53113        3.33556       77.62986
O        -17.39077        4.18525       77.44025
C        -16.60418        3.19685       80.14999
C        -17.14606        1.78730       80.17804
O        -16.67172        0.91140       79.28797
O        -17.94495        1.42315       81.01803
H        -15.25363        5.36357       79.71241
H        -14.91257        2.61990       78.93224
H        -17.43096        3.93347       80.13350
H        -16.02334        3.35252       81.08537
N        -16.32115        2.35911       76.69966
C        -17.08655        2.27339       75.45772
C        -18.56598        1.94278       75.66480
O        -19.33262        2.19430       74.74574
C        -16.45523        1.26003       74.49935
H        -15.55452        1.69577       76.85567
H        -17.01953        3.27168       74.97026
H        -16.99385        1.25285       73.52825
H        -15.39776        1.54143       74.30426
H        -16.48270        0.23950       74.93754
N        -19.04644        1.39381       76.82271
C        -20.47491        1.21430       77.10418
C        -20.92746        2.08671       78.28875
O        -22.11042        2.08852       78.59835
C        -20.84245       -0.27675       77.26592
C        -20.10764       -0.98541       78.36008
O        -20.17515       -0.53926       79.62463
O        -19.47597       -1.99848       78.10936
H        -18.38066        1.12298       77.55596
H        -21.07917        1.56692       76.24011
H        -20.64260       -0.80235       76.30477
H        -21.93229       -0.35847       77.46740
N        -20.05947        2.93327       78.91866
C        -20.44340        3.99575       79.83662
C        -20.71900        3.61172       81.27676
O        -20.94195        4.52888       82.05479
H        -19.08731        2.95812       78.60984
H        -21.30128        4.55921       79.41027
H        -19.59476        4.71097       79.88269
N        -20.74144        2.32709       81.73029
C        -21.07601        2.00937       83.12246
C        -19.96587        2.31463       84.13598
O        -20.25232        2.19125       85.31924
C        -21.53070        0.54215       83.24658
C        -22.82835        0.32327       82.50259
N        -22.91059       -0.55134       81.47562
O        -23.82435        0.94619       82.84179
H        -20.61862        1.56067       81.05487
H        -21.94841        2.63602       83.41983
H        -21.72317        0.28856       84.31156
H        -20.72490       -0.12485       82.87531
H        -22.08999       -1.09232       81.17443
H        -23.80391       -0.68642       80.97879
N        -18.70808        2.72672       83.78986
C        -17.70466        3.12807       84.77344
C        -16.42304        2.30708       84.79009
O        -15.53163        2.70244       85.52772
H        -18.46003        2.83370       82.80177
H        -18.11166        3.10908       85.80677
H        -17.43247        4.18226       84.55057
N        -16.23842        1.16958       84.05409
C        -14.97838        0.40810       84.06757
C        -14.36168        0.36606       82.67835
O        -15.06999        0.57956       81.70898
C        -15.18965       -1.01858       84.63505
C        -15.47735       -0.98613       86.13648
O        -16.25727       -1.66273       83.99375
H        -17.00916        0.82852       83.46300
H        -14.22428        0.91530       84.70724
H        -14.25838       -1.61985       84.51517
H        -15.95507       -1.85943       83.07396
H        -16.39833       -0.40671       86.35562
H        -15.60944       -2.02308       86.51494
H        -14.62052       -0.52923       86.67656
N        -13.01530        0.16654       82.51601
C        -12.35220        0.25742       81.21409
C        -11.66501       -1.06629       80.87627
O        -10.68970       -1.42180       81.52255
C        -11.33921        1.45268       81.20582
C        -12.04509        2.78377       81.59187
C        -10.65209        1.58061       79.83184
C        -11.09945        3.98806       81.67930
H        -12.43004        0.00813       83.35043
H        -13.10505        0.46728       80.42662
H        -10.55390        1.24861       81.96788
H        -12.50475        2.67044       82.59682
H        -12.85396        3.01511       80.86469
H        -11.39567        1.82408       79.04441
H         -9.86848        2.36412       79.84164
H        -10.13163        0.64248       79.56524
H        -10.27886        3.78645       82.40052
H        -10.66726        4.24213       80.69035
H        -11.66394        4.87894       82.02702
N        -12.13707       -1.84560       79.85700
C        -11.50339       -3.08329       79.39204
C        -10.22653       -2.78806       78.61496
O         -9.88117       -1.62777       78.45590
C        -12.46724       -3.85345       78.46095
C        -13.72315       -4.25931       79.17148
O        -14.80807       -3.87655       78.76668
O        -13.65852       -5.07234       80.24315
H        -13.00786       -1.55309       79.40149
H        -11.27286       -3.73234       80.26619
H        -11.99321       -4.78565       78.09295
H        -12.71440       -3.22376       77.58021
N         -9.46732       -3.79524       78.09232
C         -8.24370       -3.55096       77.33502
C         -8.50548       -2.82391       76.00531
O         -7.94435       -1.74861       75.86135
C         -7.42143       -4.84924       77.16257
C         -6.13596       -4.61269       76.40438
C         -5.15619       -3.74116       76.91275
C         -5.90453       -5.26372       75.17965
C         -3.96938       -3.52487       76.20759
C         -4.71511       -5.04424       74.47803
C         -3.74848       -4.17580       74.99157
H         -9.74486       -4.77165       78.27905
H         -7.60202       -2.88922       77.95972
H         -8.00994       -5.63490       76.66773
H         -7.17252       -5.25434       78.16688
H         -5.30743       -3.23026       77.85472
H         -6.64369       -5.93834       74.76523
H         -3.22037       -2.85271       76.60559
H         -4.54253       -5.54774       73.53564
H         -2.82799       -4.00756       74.44800
N         -9.30695       -3.29586       74.98602
C         -9.53796       -2.56168       73.73731
C         -9.96515       -1.12811       73.95505
O         -9.61189       -0.25957       73.16860
C        -10.70471       -3.31760       73.08457
C        -10.43877       -4.72971       73.52498
C        -10.06906       -4.53076       74.99338
H         -8.62107       -2.61549       73.11002
H        -11.67047       -3.02521       73.56068
H        -10.79489       -3.16238       71.98722
H        -11.26423       -5.45064       73.34486
H         -9.53350       -5.07982       72.97562
H        -10.96239       -4.39743       75.64278
H         -9.50613       -5.42719       75.28260
N        -10.76367       -0.82867       75.00972
C        -11.28070        0.49832       75.29397
C        -10.12793        1.43699       75.60488
O         -9.97351        2.44092       74.92457
C        -12.29470        0.42177       76.45440
C        -13.45231       -0.55661       76.11944
C        -14.44763       -0.68204       77.22280
O        -14.36322        0.02671       78.21201
O        -15.43769       -1.59465       77.15104
H        -11.00808       -1.60045       75.64569
H        -11.83916        0.87246       74.40636
H        -12.70667        1.43762       76.64709
H        -11.78498        0.06829       77.37727
H        -13.07177       -1.57777       75.94761
H        -13.97470       -0.23145       75.19799
N         -9.24648        1.13853       76.59818
C         -8.08796        1.95138       76.89380
H         -7.42998        2.00875       76.00041
H         -8.40030        2.97080       77.19973
H         -7.50855        1.48977       77.72323
H         -9.38205        0.28449       77.14790
Ca       -16.92393       -1.23381       78.77604
O        -18.36601       -1.63367       81.54214
H        -18.00495       -0.89357       82.08848
H        -19.28964       -1.75607       81.87360
O        -17.97980       -4.45197       79.01770
H        -17.40264       -5.21710       79.26631
H        -18.56951       -4.31973       79.80230
O        -16.16834       -3.54425       81.22134
H        -16.87235       -3.91513       81.80963
H        -15.32913       -3.66295       81.73241

Ca 1.0



