%chk=holoCaM-CaMKII.loop3.water2.frame147.chk
%nprocshared=20
%mem=10GB
%nosave
#b3lyp/svp scf=(tight,noincore,xqc) Test 
#IOP(5/87=12) Density=Current Pop=(MK,readradii) iop(6/33=2) iop(6/42=6)

holoCaM-CaMKII.loop3.water2.frame147 

   0  1 
C         90.39622       12.45243       72.38808
C         90.77916       12.88920       73.76991
O         89.93401       13.40218       74.48834
H         89.33708       12.70927       72.17042
H         91.04422       12.95783       71.64076
H         90.52521       11.35380       72.30196
N         92.06576       12.74425       74.19508
C         92.53579       13.16076       75.50929
C         93.18690       14.51780       75.39405
O         94.39020       14.65330       75.56351
C         93.42852       12.05675       76.12179
C         94.00779       12.37198       77.48266
O         95.21457       12.28655       77.63390
O         93.23779       12.69783       78.54733
H         92.75979       12.36843       73.53065
H         91.67877       13.30832       76.17798
H         94.26455       11.83594       75.42215
H         92.83536       11.13410       76.22433
N         92.39487       15.59405       75.12565
C         92.88351       16.96203       75.05699
C         93.41815       17.39266       76.41530
O         94.57555       17.78359       76.48086
C         91.78142       17.92006       74.54303
C         91.35096       17.54502       73.10610
C         90.36233       18.55657       72.50854
C         89.99431       18.23912       71.04427
N         89.24209       16.98957       70.90558
H         91.38691       15.43012       74.98950
H         93.70994       17.01432       74.31238
H         92.20126       18.94996       74.52404
H         90.89946       17.91283       75.22082
H         90.89086       16.53718       73.10870
H         92.25341       17.52028       72.45674
H         90.84407       19.55863       72.52061
H         89.43858       18.60582       73.12449
H         90.91679       18.19330       70.42293
H         89.36765       19.07228       70.65607
H         89.82002       16.16749       71.18905
H         88.36894       17.03024       71.47965
H         88.97629       16.86516       69.90166
N         92.65450       17.31461       77.55154
C         93.17191       17.69990       78.87253
C         94.39172       16.88516       79.31791
O         95.03768       17.29024       80.27472
C         92.08282       17.68364       79.97005
C         91.53195       16.31746       80.26601
O         90.91120       15.70632       79.41572
O         91.68421       15.77937       81.49052
H         91.67954       16.99465       77.46026
H         93.50735       18.75678       78.77805
H         91.24532       18.35272       79.67820
H         92.52515       18.09048       80.90613
N         94.80708       15.77554       78.64355
C         96.09376       15.14196       78.87078
C         96.25161       14.36942       80.16131
O         97.35488       13.88209       80.36827
H         94.25330       15.42793       77.85535
H         96.88152       15.92415       78.81286
H         96.29613       14.43677       78.04029
N         95.25190       14.19209       81.07899
C         95.51257       13.48191       82.33482
C         95.86945       12.00741       82.13331
O         96.33243       11.38895       83.08204
C         94.35653       13.63109       83.34542
C         93.13906       12.80249       83.00695
N         92.69798       11.85681       83.87142
O         92.54718       12.98248       81.95397
H         94.32694       14.61299       80.91297
H         96.38973       13.99365       82.79250
H         94.07532       14.70328       83.42750
H         94.73537       13.31565       84.34234
H         93.18175       11.68913       84.76663
H         91.86923       11.28644       83.64930
N         95.67124       11.37917       80.93661
C         96.06590       10.00916       80.65880
C         94.90446        9.10623       80.29541
O         95.17579        7.97448       79.92284
H         95.23732       11.89384       80.16131
H         96.59924        9.54723       81.51852
H         96.77262       10.03429       79.80197
N         93.59632        9.48886       80.43652
C         92.47835        8.57765       80.17697
C         91.43751        9.23411       79.28373
O         91.49881       10.43872       79.10492
C         91.78872        8.19096       81.50900
C         92.73011        7.60464       82.54148
C         92.63437        6.25081       82.90242
C         93.69597        8.40970       83.17761
C         93.49972        5.71046       83.86017
C         94.55788        7.86927       84.13230
C         94.46508        6.51505       84.47525
O         95.29281        5.97950       85.39478
H         93.38024       10.42128       80.81725
H         92.84521        7.65238       79.68299
H         90.98824        7.45705       81.26861
H         91.29872        9.07779       81.96751
H         91.89505        5.61007       82.43895
H         93.78501        9.46139       82.94844
H         93.41936        4.66404       84.12447
H         95.29461        8.50676       84.60577
H         95.97345        6.50426       85.84047
N         90.41927        8.50647       78.72154
C         89.27937        9.14727       78.05518
C         87.95430        8.61400       78.58662
O         87.92486        7.60743       79.27770
C         89.31972        9.03719       76.50177
C         89.21581        7.57661       76.00083
C         90.56123        9.75082       75.95684
C         89.05217        7.47896       74.48092
H         90.43229        7.48018       78.80916
H         89.29971       10.22474       78.29590
H         88.43834        9.59268       76.10916
H         88.31227        7.10601       76.44316
H         90.10556        6.99350       76.32049
H         90.55488        9.80187       74.85002
H         90.56925       10.79974       76.32244
H         91.48389        9.23030       76.28894
H         88.91848        6.41635       74.19030
H         88.15430        8.04815       74.15491
H         89.94298        7.86461       73.94635
N         86.80289        9.27194       78.26976
C         85.46168        8.81585       78.61528
C         84.58600        8.81822       77.36509
O         85.06722        9.15594       76.29666
C         84.87756        9.73988       79.69664
O         84.76274       11.06004       79.23453
H         86.87780       10.15720       77.75351
H         85.48916        7.78751       79.03631
H         85.51392        9.69084       80.61183
H         83.87282        9.38890       80.01158
H         85.56515       11.54979       79.55205
N         83.27039        8.47044       77.43272
C         82.36353        8.55716       76.28868
C         82.21650        9.99406       75.81183
O         82.35962       10.24231       74.62257
C         80.98150        8.01676       76.66760
H         82.89462        8.15076       78.33721
H         82.74141        7.91968       75.45746
H         80.53676        8.60405       77.49858
H         80.30235        8.06562       75.78856
H         81.06677        6.95484       76.98123
N         81.94132       10.99294       76.70070
C         81.74302       12.39467       76.33179
C         82.88692       12.92384       75.49443
O         82.64272       13.43955       74.41249
C         81.59547       13.25446       77.59488
H         81.88355       10.74006       77.69987
H         80.80389       12.48714       75.74234
H         80.73048       12.90512       78.19679
H         82.51070       13.19265       78.22364
H         81.42618       14.31776       77.32019
N         84.16905       12.79516       75.92432
C         85.32359       13.24313       75.15372
C         85.32714       12.60223       73.77547
O         85.34888       13.32591       72.78900
C         86.61526       12.90638       75.91603
C         86.75771       13.75592       77.19428
C         87.98823       13.34214       77.93022
O         88.04504       12.24562       78.45332
O         89.07688       14.12315       77.91741
H         84.32434       12.32154       76.82712
H         85.28233       14.34741       75.01623
H         87.49103       13.12516       75.26860
H         86.62818       11.82032       76.15046
H         85.88729       13.66071       77.87670
H         86.84861       14.82036       76.88749
N         85.26553       11.25288       73.62813
C         85.20908       10.61791       72.32978
H         84.32177       10.98318       71.76853
H         86.13153       10.84229       71.75470
H         85.11777        9.51734       72.45073
H         85.22632       10.65830       74.46225
Ca        91.02504       13.11203       78.41340
O         89.06490       10.83543       81.13508
H         88.12199       11.12805       81.06197
H         89.01368        9.94466       81.56337
O         89.32443       13.75834       82.26142
H         88.98143       14.63719       82.56189
H         88.88844       13.10372       82.86296

Ca 1.0



