%chk=holoCaM.loop3.water3.frame377.chk
%nprocshared=20
%mem=10GB
%nosave
#b3lyp/svp scf=(tight,noincore,xqc) Test 
#IOP(5/87=12) Density=Current Pop=(MK,readradii) iop(6/33=2) iop(6/42=6)

holoCaM.loop3.water3.frame377 

   0  1 
C         -7.21783      -20.62892       56.92826
C         -6.51232      -21.94872       57.00728
O         -6.08511      -22.46679       55.98595
H         -8.23699      -20.72139       57.35832
H         -6.64607      -19.87514       57.51095
H         -7.29668      -20.28258       55.87656
N         -6.35380      -22.54799       58.21694
C         -5.62986      -23.79207       58.42418
C         -6.59522      -24.86456       58.93661
O         -7.11104      -24.74702       60.03871
C         -4.45500      -23.46716       59.36584
C         -3.77929      -24.64835       59.96383
O         -3.73134      -24.72989       61.30062
O         -3.25838      -25.50859       59.27525
H         -6.75137      -22.08136       59.04802
H         -5.19790      -24.15820       57.46841
H         -4.82735      -22.85418       60.21602
H         -3.70916      -22.85306       58.81553
N         -6.93184      -25.91063       58.11840
C         -7.94333      -26.92649       58.41527
C         -7.60268      -27.90362       59.54338
O         -8.48933      -28.66798       59.89948
C         -8.27328      -27.74168       57.12805
C         -7.14754      -28.71111       56.69676
C         -7.49169      -29.43993       55.38769
C         -6.40671      -30.44173       54.94197
N         -6.30825      -31.59833       55.83579
H         -6.54902      -25.90114       57.16706
H         -8.86504      -26.37116       58.69782
H         -8.49700      -27.02953       56.30226
H         -9.19012      -28.34459       57.30511
H         -6.99530      -29.45170       57.50572
H         -6.20372      -28.15892       56.54341
H         -7.59613      -28.67323       54.58921
H         -8.45993      -29.97621       55.48626
H         -5.42037      -29.93124       54.86605
H         -6.67540      -30.81350       53.92871
H         -6.01700      -31.31057       56.79098
H         -7.22726      -32.09401       55.88935
H         -5.58930      -32.26019       55.46345
N         -6.36466      -27.99064       60.11630
C         -6.03102      -28.97884       61.15320
C         -5.63901      -28.32800       62.46632
O         -5.41613      -29.05525       63.42538
C         -4.81753      -29.82487       60.71490
C         -5.04884      -30.67153       59.50688
O         -4.40848      -30.38351       58.36246
O         -5.79030      -31.63927       59.56092
H         -5.62245      -27.35239       59.79561
H         -6.89798      -29.64321       61.36301
H         -4.49403      -30.51331       61.52660
H         -3.97321      -29.13051       60.51942
N         -5.46784      -26.98446       62.58502
C         -4.95182      -26.36531       63.78875
C         -3.56724      -26.88301       64.12654
O         -3.35428      -27.29011       65.25953
H         -5.65996      -26.36359       61.78900
H         -5.65229      -26.52920       64.63649
H         -4.87869      -25.27053       63.61627
N         -2.57586      -26.89353       63.18642
C         -1.19801      -27.28797       63.45431
C         -0.22175      -26.13856       63.18564
O          0.97270      -26.34361       63.34028
C         -0.82981      -28.55056       62.64391
C         -0.64535      -28.32029       61.16209
N          0.54770      -28.58658       60.57880
O         -1.57096      -27.90704       60.48140
H         -2.80444      -26.61051       62.22894
H         -1.09157      -27.56929       64.52441
H         -1.60629      -29.32976       62.80565
H          0.12254      -28.94827       63.05678
H          1.34298      -28.94234       61.12947
H          0.68011      -28.44496       59.56939
N         -0.65693      -24.89184       62.82727
C          0.22622      -23.75348       62.62890
C          0.91181      -23.69520       61.27567
O          1.62740      -22.72406       61.06530
H         -1.66407      -24.69259       62.79323
H          0.96423      -23.70134       63.45865
H         -0.39089      -22.82990       62.68512
N          0.74171      -24.63728       60.29974
C          1.35603      -24.52628       58.97442
C          0.30478      -24.53568       57.87963
O         -0.66003      -25.28327       57.97898
C          2.37371      -25.65016       58.69988
C          3.56516      -25.58239       59.62456
C          3.45396      -25.96583       60.96941
C          4.80693      -25.13264       59.14244
C          4.56059      -25.89425       61.82083
C          5.91060      -25.05308       59.99562
C          5.79074      -25.43379       61.33946
O          6.84752      -25.36203       62.17355
H          0.15149      -25.46149       60.48844
H          1.93141      -23.57816       58.87637
H          2.73184      -25.50262       57.65584
H          1.91137      -26.65638       58.74142
H          2.51371      -26.32975       61.35358
H          4.91978      -24.82883       58.10902
H          4.46114      -26.19652       62.85569
H          6.85679      -24.69385       59.61075
H          7.71327      -25.04376       61.87991
N          0.48812      -23.78748       56.75187
C         -0.41575      -23.79719       55.60728
C          0.29443      -24.39474       54.39915
O          1.21920      -23.79596       53.86528
C         -0.96358      -22.35459       55.34169
C         -2.02318      -22.01859       56.42454
C         -1.55818      -22.18947       53.92723
C         -2.60942      -20.60863       56.32842
H          1.33755      -23.20452       56.67903
H         -1.29148      -24.45298       55.81026
H         -0.11331      -21.63848       55.40087
H         -1.56274      -22.12575       57.42947
H         -2.86515      -22.74372       56.34915
H         -1.88058      -21.14652       53.74173
H         -0.78963      -22.37937       53.15255
H         -2.41477      -22.86826       53.77534
H         -3.16297      -20.45848       55.37915
H         -3.33949      -20.46106       57.15178
H         -1.80523      -19.84936       56.41624
N         -0.13920      -25.58726       53.90249
C          0.30620      -26.19124       52.65512
C         -0.19278      -25.37634       51.47131
O         -0.92124      -24.41651       51.65996
C         -0.26210      -27.62707       52.54199
O         -1.66717      -27.60149       52.48686
H         -0.84448      -26.09149       54.43835
H          1.41533      -26.25413       52.65698
H          0.09485      -28.22991       53.41065
H          0.10982      -28.13530       51.62853
H         -2.01325      -28.15193       53.23558
N          0.13216      -25.73772       50.20264
C         -0.41391      -25.06985       49.02618
C         -1.92399      -25.26268       48.94493
O         -2.63558      -24.29137       48.72975
C          0.24934      -25.62034       47.76134
H          0.77823      -26.53049       50.07036
H         -0.16964      -23.98377       49.06031
H         -0.13551      -25.08478       46.86711
H          1.34703      -25.45161       47.81731
H          0.05838      -26.70782       47.64784
N         -2.47680      -26.49810       49.12831
C         -3.90879      -26.78906       49.02690
C         -4.74544      -25.89990       49.93234
O         -5.64532      -25.23626       49.43734
C         -4.16943      -28.26260       49.36569
H         -1.83790      -27.27654       49.35604
H         -4.23164      -26.62422       47.97469
H         -3.86509      -28.48898       50.41058
H         -5.24833      -28.49945       49.24798
H         -3.59092      -28.91822       48.68047
N         -4.47329      -25.80951       51.26386
C         -5.17539      -24.91404       52.18640
C         -5.16349      -23.49679       51.64795
O         -6.22991      -22.91995       51.47917
C         -4.49464      -24.96767       53.57494
C         -4.81765      -26.27345       54.30778
C         -3.91656      -26.50431       55.48511
O         -4.39103      -26.50767       56.73099
O         -2.76894      -26.84719       55.30563
H         -3.68309      -26.36367       51.62078
H         -6.24135      -25.22199       52.29136
H         -4.84425      -24.13485       54.22430
H         -3.39943      -24.86162       53.42804
H         -4.69577      -27.15459       53.64240
H         -5.88229      -26.23817       54.62863
N         -3.99790      -22.88633       51.31434
C         -3.96030      -21.55737       50.74833
H         -2.91073      -21.27410       50.52311
H         -4.54369      -21.53416       49.80225
H         -4.38708      -20.82657       51.46662
H         -3.11273      -23.39099       51.43868
Ca        -3.82537      -28.24191       58.02358
O         -1.45407      -30.55789       58.86431
H         -1.91349      -31.11458       59.54192
H         -1.07666      -31.20793       58.22022
O         -2.27510      -29.53636       55.79377
H         -1.44514      -29.81795       55.33407
H         -2.77485      -30.37444       55.95554
O         -0.02913      -27.96298       57.03323
H          0.11484      -28.91548       57.26037
H          0.82923      -27.67124       56.63612

Ca 1.0



