%chk=holoCaM-CaMKII.loop4.water2.frame81.chk
%nprocshared=20
%mem=10GB
%nosave
#b3lyp/svp scf=(tight,noincore,xqc) Test 
#IOP(5/87=12) Density=Current Pop=(MK,readradii) iop(6/33=2) iop(6/42=6)

holoCaM-CaMKII.loop4.water2.frame81 

   -3  1 
C         -4.22905       60.56887       64.22133
C         -2.83040       60.90748       63.79897
O         -2.50971       62.08095       63.68749
H         -4.94988       60.97754       63.48411
H         -4.37675       59.46937       64.28657
H         -4.42986       61.00750       65.22080
N         -1.93243       59.91648       63.55838
C         -0.54874       60.16322       63.18114
C         -0.46372       60.85972       61.83086
O         -1.10099       60.40342       60.89153
C          0.21196       58.83080       63.13957
C          1.69057       59.00010       62.99388
O          2.21851       60.09915       62.98238
O          2.44787       57.90443       62.91335
H         -2.24176       58.93908       63.68037
H         -0.07837       60.77469       63.97217
H         -0.17383       58.20402       62.30695
H          0.05581       58.28522       64.09583
N          0.35004       61.94208       61.65401
C          0.45591       62.67537       60.39782
C          1.80202       62.37092       59.74130
O          1.81289       61.79132       58.66404
C          0.23140       64.19662       60.67242
C         -1.09316       64.48047       61.43405
C          0.32325       65.03729       59.38908
C         -2.36875       64.04520       60.70927
H          0.93606       62.25542       62.44037
H         -0.32532       62.32759       59.68708
H          1.04055       64.55442       61.34659
H         -1.16197       65.57022       61.64515
H         -1.06563       63.96576       62.41769
H          1.32230       64.92185       58.91957
H         -0.44858       64.73693       58.65218
H          0.19156       66.11409       59.63265
H         -2.37562       62.94999       60.53829
H         -3.24789       64.29405       61.34052
H         -2.47915       64.57370       59.74135
N          2.97638       62.73532       60.32889
C          4.30022       62.47167       59.74545
C          4.69426       60.97904       59.67723
O          5.73120       60.68792       59.09677
C          5.39427       63.25344       60.51873
C          5.46574       62.86751       61.97475
O          6.36026       63.29487       62.68584
O          4.53052       62.04370       62.48222
H          2.91457       63.27586       61.20278
H          4.29439       62.86388       58.70385
H          5.20551       64.34603       60.44677
H          6.37649       63.04790       60.03852
N          3.93493       59.98567       60.22120
C          4.23172       58.56345       60.08080
C          5.47635       58.05272       60.79939
O          6.32144       57.46507       60.13917
H          3.05711       60.23063       60.69195
H          4.29294       58.31662       58.99754
H          3.37716       57.98494       60.48955
N          5.60685       58.14245       62.15834
C          6.64516       57.43868       62.92994
C          6.02014       56.46598       63.93862
O          6.71229       55.98995       64.82760
C          7.62085       58.43568       63.59300
C          7.07646       59.32400       64.67563
O          7.78425       60.21872       65.10842
O          5.82342       59.20954       65.14386
H          4.89769       58.67610       62.68029
H          7.28932       56.83131       62.25668
H          8.02010       59.08286       62.78152
H          8.47814       57.87896       64.03028
N          4.71183       56.10025       63.82577
C          3.99620       55.22326       64.73403
C          3.84656       55.80617       66.12257
O          4.15470       55.10245       67.06916
H          4.18230       56.42314       63.01263
H          4.48923       54.22663       64.77074
H          2.96998       55.07374       64.33204
N          3.31261       57.05132       66.31728
C          3.06403       57.66381       67.63118
C          2.29872       58.97278       67.49101
O          2.73337       59.85604       66.76342
C          4.32939       58.02422       68.45182
C          5.08658       56.85149       69.08095
C          6.02460       57.33743       70.15371
N          7.05023       58.16645       69.85631
O          5.85051       56.98077       71.30985
H          3.01940       57.57208       65.47672
H          2.44243       56.97192       68.24116
H          3.95735       58.61663       69.32148
H          5.01226       58.67560       67.86695
H          5.68015       56.30503       68.32514
H          4.34549       56.16835       69.55442
H          7.21521       58.47468       68.88753
H          7.68195       58.49857       70.59960
N          1.18002       59.18567       68.24116
C          0.46311       60.45437       68.25718
C          1.19387       61.43786       69.17737
O          1.40761       61.10290       70.33512
C         -1.00916       60.27609       68.74987
C         -1.81975       61.55488       68.46128
C         -1.72770       59.09352       68.07480
H          0.86135       58.43402       68.86993
H          0.38460       60.82294       67.21369
H         -1.01373       60.07674       69.84469
H         -1.36922       62.43496       68.95455
H         -1.86082       61.74783       67.36517
H         -2.86106       61.45245       68.83295
H         -1.74292       59.20958       66.97107
H         -1.24513       58.12841       68.32861
H         -2.77255       59.02577       68.44801
N          1.53121       62.69120       68.75769
C          2.09191       63.72909       69.63211
C          0.98493       64.71478       69.98406
O         -0.11432       64.54252       69.48615
C          3.28423       64.39157       68.90226
C          3.95552       65.51588       69.65216
N          4.53299       65.30832       70.85835
O          3.98239       66.63279       69.15697
H          1.27392       62.96430       67.80064
H          2.43675       63.28565       70.59182
H          2.92353       64.78331       67.92467
H          4.04692       63.61606       68.69791
H          4.52339       64.37697       71.29698
H          4.98364       66.08881       71.35978
N          1.15376       65.73370       70.87636
C          0.05154       66.61359       71.24948
C         -0.48031       67.38131       70.05101
O         -1.67924       67.33623       69.81931
C          0.44355       67.61559       72.35762
C         -0.78691       68.40011       72.76884
C         -1.87131       67.74245       73.37966
C         -0.88572       69.77490       72.49965
C         -3.03722       68.44176       73.69756
C         -2.05736       70.47235       72.81501
C         -3.13924       69.80530       73.40981
O         -4.28131       70.45967       73.70161
H          2.06101       65.85961       71.34465
H         -0.76113       65.97321       71.65967
H          1.23900       68.29051       71.97135
H          0.84878       67.08536       73.24672
H         -1.82091       66.68325       73.59904
H         -0.06893       70.30142       72.02241
H         -3.86710       67.91849       74.15642
H         -2.12811       71.52782       72.58558
H         -4.40372       71.39788       73.49899
N          0.34913       68.12127       69.25757
C         -0.14501       68.91358       68.13050
C         -0.97098       68.07876       67.16494
O         -1.92516       68.59420       66.59904
C          0.99656       69.66138       67.40267
C          1.99766       68.73831       66.68322
C          3.09336       69.53664       66.03490
O          2.82989       70.35979       65.17234
O          4.37598       69.33891       66.39523
H          1.35775       68.12310       69.47121
H         -0.81852       69.69193       68.55346
H          1.54069       70.28152       68.14929
H          0.54636       70.34875       66.65241
H          1.48007       68.15168       65.89506
H          2.45038       68.03045       67.40701
N         -0.67857       66.76629       66.96127
C         -1.48276       65.88301       66.12534
C         -2.86279       65.70220       66.74371
O         -3.84862       65.98139       66.07682
C         -0.74604       64.54076       65.92310
C          0.56061       64.78368       65.12949
C          1.38183       63.55405       64.88786
O          2.41018       63.64005       64.23707
O          1.01456       62.36180       65.38178
H          0.14796       66.37548       67.43908
H         -1.60339       66.32937       65.11251
H         -1.38954       63.84685       65.34164
H         -0.53515       64.07353       66.90658
H          1.21282       65.50471       65.66350
H          0.29496       65.21844       64.14224
N         -3.00098       65.28671       68.03410
C         -4.27050       65.15669       68.72038
H         -5.13470       65.38024       68.06218
H         -4.37469       64.12336       69.11214
H         -4.29331       65.86201       69.57980
H         -2.16271       65.08521       68.58238
Ca         4.58569       60.85961       64.35585
O          4.84005       63.88820       65.82476
H          4.79396       64.84498       65.57434
H          5.71494       63.58064       65.47850
O          5.35776       61.27644       67.38439
H          5.49806       61.98338       68.06000
H          6.26316       60.90831       67.23341

Ca 1.0



