%chk=holoCaM.loop2.water2.frame134.chk
%nprocshared=20
%mem=10GB
%nosave
#b3lyp/svp scf=(tight,noincore,xqc) Test 
#IOP(5/87=12) Density=Current Pop=(MK,readradii) iop(6/33=2) iop(6/42=6)

holoCaM.loop2.water2.frame134 

   -2  1 
C          0.12691       95.55252       -1.66751
C          0.33588       94.06942       -1.56490
O          0.61689       93.59510       -0.47771
H         -0.67735       95.85066       -0.96047
H          1.05838       96.09371       -1.40242
H         -0.18596       95.84898       -2.69047
N          0.21894       93.26986       -2.66086
C          0.26085       91.81260       -2.60585
C          1.59669       91.27222       -3.08231
O          2.00489       91.57983       -4.19334
C         -0.88381       91.25867       -3.47341
C         -0.90439       89.76148       -3.47286
O         -0.81531       89.15277       -4.52672
O         -1.00018       89.08629       -2.31222
H          0.04082       93.71336       -3.57546
H          0.09125       91.46409       -1.56244
H         -0.77282       91.62113       -4.51997
H         -1.85455       91.62976       -3.09068
N          2.30641       90.41157       -2.28862
C          3.57638       89.80721       -2.67708
C          3.52729       88.27468       -2.73980
O          4.52931       87.69716       -3.13789
C          4.65195       90.24971       -1.67700
H          1.93089       90.17356       -1.35960
H          3.87337       90.16427       -3.68607
H          4.39974       89.89418       -0.65320
H          5.64653       89.84429       -1.95919
H          4.72000       91.35850       -1.65603
N          2.44322       87.54373       -2.33379
C          2.42007       86.07258       -2.30727
C          1.17001       85.44915       -2.95136
O          1.10053       84.22776       -2.99022
C          2.57447       85.57539       -0.85350
C          1.67870       86.30957        0.08698
O          0.38266       86.47391       -0.19877
O          2.14691       86.85995        1.07125
H          1.63222       88.03875       -1.93969
H          3.28456       85.65426       -2.86678
H          3.61952       85.74188       -0.51215
H          2.38018       84.48269       -0.79937
N          0.16413       86.18827       -3.49870
C         -0.98456       85.60035       -4.18554
C         -1.98878       84.85192       -3.31335
O         -2.93133       84.31684       -3.88013
H          0.25023       87.20760       -3.50898
H         -0.60875       84.91583       -4.97708
H         -1.55138       86.41234       -4.69000
N         -1.88550       84.76646       -1.95507
C         -2.83346       84.02260       -1.11656
C         -4.25101       84.63185       -1.05389
O         -5.08495       84.05971       -0.36525
C         -2.24888       83.81064        0.30911
C         -2.11565       85.05471        1.14060
N         -1.62660       84.98905        2.40034
O         -2.45475       86.12893        0.68381
H         -1.07306       85.19312       -1.50483
H         -2.91951       82.99766       -1.53928
H         -1.24436       83.34167        0.21799
H         -2.90330       83.10711        0.86669
H         -1.32787       84.09037        2.80531
H         -1.54981       85.84051        2.97527
N         -4.61518       85.75251       -1.75247
C         -5.97397       86.29191       -1.76600
C         -6.36468       87.10389       -0.53713
O         -7.49169       87.57640       -0.50172
H         -3.93854       86.20420       -2.37808
H         -6.69634       85.46171       -1.93354
H         -6.06781       86.98406       -2.62974
N         -5.50892       87.30429        0.50396
C         -5.83947       88.03051        1.72734
C         -4.71646       88.98187        2.13968
O         -3.57790       88.55079        2.25636
C         -6.08755       87.02720        2.87823
C         -7.35456       86.19036        2.64810
O         -4.96996       86.20074        3.10077
H         -4.59393       86.86177        0.46170
H         -6.78347       88.60839        1.60836
H         -6.26966       87.61060        3.80787
H         -4.91943       85.54571        2.35622
H         -7.26615       85.56853        1.73291
H         -7.52532       85.52362        3.51854
H         -8.23627       86.85924        2.54162
N         -4.99760       90.27406        2.48083
C         -4.01762       91.20085        3.06125
C         -3.42356       90.61070        4.33696
O         -4.15632       90.10230        5.17451
C         -4.66793       92.60139        3.32293
C         -4.98945       93.27658        1.96010
C         -3.74806       93.51277        4.16707
C         -5.73553       94.60723        2.07606
H         -5.97456       90.59083        2.38945
H         -3.18351       91.36517        2.34878
H         -5.60516       92.45403        3.90466
H         -5.62593       92.60393        1.34935
H         -4.04325       93.44911        1.39974
H         -2.78010       93.68990        3.65335
H         -4.22732       94.48622        4.38720
H         -3.55826       93.05942        5.15978
H         -5.13232       95.37579        2.59910
H         -5.94632       94.99603        1.05749
H         -6.69810       94.46182        2.60918
N         -2.08269       90.72975        4.56438
C         -1.38407       90.22962        5.74608
C         -1.02041       91.39316        6.63650
O         -1.34493       92.51752        6.29296
C         -0.07266       89.52011        5.33982
C         -0.25617       88.57286        4.21022
O         -0.66227       89.07243        3.03329
O          0.04591       87.39504        4.31399
H         -1.52539       91.25760        3.87978
H         -2.03672       89.52619        6.30816
H          0.37724       89.00343        6.21488
H          0.65821       90.27539        4.97236
N         -0.35253       91.21702        7.80543
C          0.02507       92.34140        8.64953
C          1.08140       93.23870        7.98362
O          0.77607       94.41029        7.82484
C          0.38360       91.86129       10.06841
C          0.86669       92.98326       10.95576
C          0.11666       94.16432       11.11845
C          2.09042       92.85167       11.63203
C          0.59485       95.19562       11.93056
C          2.55566       93.87861       12.45584
C          1.81154       95.05173       12.60127
H         -0.13796       90.25596        8.11646
H         -0.88638       92.96428        8.79670
H          1.12979       91.04668       10.04402
H         -0.53655       91.42115       10.51150
H         -0.82882       94.30022       10.61039
H          2.68156       91.94999       11.52890
H          0.02091       96.10672       12.03963
H          3.49516       93.76383       12.97960
H          2.17752       95.84875       13.23428
N          2.31642       92.80981        7.55504
C          3.28796       93.66929        6.87353
C          2.68654       94.48667        5.74751
O          2.91052       95.68765        5.68016
C          4.30001       92.67075        6.29114
C          4.30828       91.59850        7.34777
C          2.81941       91.45538        7.66073
H          3.77685       94.33007        7.62406
H          3.89131       92.19111        5.37196
H          5.28893       93.11190        6.04089
H          4.81696       90.65208        7.06697
H          4.81887       92.02719        8.24114
H          2.29044       90.81944        6.91855
H          2.74644       91.02503        8.67311
N          1.88191       93.87734        4.83890
C          1.24821       94.54670        3.70922
C          0.36644       95.68685        4.19401
O          0.51471       96.80094        3.71362
C          0.42522       93.52609        2.89340
C          1.31819       92.40246        2.31403
C          0.55451       91.38991        1.51339
O         -0.77347       91.50151        1.33363
O          1.14784       90.44388        1.02289
H          1.69135       92.87577        4.98901
H          2.02635       94.96056        3.02945
H         -0.07995       94.05385        2.05556
H         -0.35449       93.08918        3.54674
H          1.82731       91.84253        3.12272
H          2.09755       92.85286        1.66336
N         -0.54045       95.47772        5.18555
C         -1.39528       96.50084        5.74867
H         -2.45411       96.17635        5.67130
H         -1.14507       96.63179        6.82371
H         -1.28056       97.47737        5.23628
H         -0.60186       94.54629        5.59625
Ca        -0.57638       87.82400        1.24927
O         -3.51709       88.61386       -1.42359
H         -3.77560       88.69708       -2.37571
H         -4.14243       89.21110       -0.94505
O         -2.66493       91.47694       -0.70578
H         -3.07904       92.31695       -1.02431
H         -3.23529       91.18866        0.04781

Ca 1.0



