%chk=holoCaM-CaMKII.loop2.water1.frame74.chk
%nprocshared=20
%mem=10GB
%nosave
#b3lyp/svp scf=(tight,noincore,xqc) Test 
#IOP(5/87=12) Density=Current Pop=(MK,readradii) iop(6/33=2) iop(6/42=6)

holoCaM-CaMKII.loop2.water1.frame74 

   -2  1 
C        -24.60917       62.59683       82.19228
C        -26.09663       62.56001       81.98116
O        -26.53614       62.55096       80.84082
H        -24.18308       63.51813       81.74591
H        -24.35226       62.57701       83.27353
H        -24.14704       61.70753       81.71367
N        -26.93630       62.51385       83.05037
C        -28.38352       62.38732       82.93558
C        -29.01229       63.57358       82.21545
O        -28.87941       64.70131       82.66865
C        -28.98790       62.20051       84.34023
C        -30.47542       62.03637       84.31400
O        -31.24735       62.85840       85.04834
O        -30.98916       61.15395       83.64665
H        -26.51799       62.51897       83.99410
H        -28.60142       61.45724       82.36979
H        -28.73240       63.06785       84.98640
H        -28.54612       61.28573       84.79191
N        -29.75407       63.35457       81.09173
C        -30.46095       64.38123       80.33622
C        -31.97605       64.14514       80.32520
O        -32.67603       64.93425       79.70539
C        -29.93414       64.35509       78.89371
H        -29.83507       62.39032       80.74947
H        -30.27259       65.38701       80.76875
H        -30.13068       63.36217       78.42915
H        -30.42512       65.13524       78.27430
H        -28.83820       64.53380       78.88125
N        -32.54578       63.06280       80.93900
C        -33.96320       62.70635       80.82580
C        -34.65789       62.42802       82.16041
O        -35.85503       62.17378       82.13386
C        -34.10899       61.48832       79.88548
C        -33.35709       60.24602       80.31030
O        -33.41775       59.24861       79.61109
O        -32.58836       60.23222       81.42023
H        -31.93109       62.41474       81.43533
H        -34.52501       63.54082       80.35003
H        -33.73567       61.78375       78.88071
H        -35.18842       61.24055       79.77930
N        -34.01128       62.47090       83.35949
C        -34.70325       62.28266       84.62780
C        -35.29399       60.89916       84.85318
O        -36.10875       60.78708       85.75825
H        -33.01919       62.72082       83.38656
H        -35.52766       63.02720       84.67093
H        -34.02124       62.50320       85.47753
N        -34.90977       59.79364       84.14481
C        -35.50359       58.46944       84.36375
C        -34.61121       57.55529       85.20581
O        -34.95081       56.39087       85.36670
C        -35.95834       57.84602       83.01702
C        -34.85602       57.40457       82.09031
N        -35.14526       56.90140       80.86939
O        -33.69654       57.47904       82.44005
H        -34.14617       59.88013       83.46024
H        -36.43952       58.57115       84.95504
H        -36.59253       58.59076       82.48955
H        -36.58117       56.94926       83.22439
H        -36.11970       56.82544       80.54675
H        -34.38851       56.59117       80.24172
N        -33.51788       58.04000       85.86704
C        -32.73651       57.25375       86.81119
C        -31.76307       56.27788       86.18392
O        -31.04750       55.64012       86.94368
H        -33.28955       59.04179       85.80252
H        -33.41619       56.73436       87.52234
H        -32.11382       57.95486       87.40902
N        -31.63972       56.12062       84.83287
C        -30.64073       55.25331       84.21910
C        -29.73685       56.08674       83.26615
O        -30.42006       56.38742       82.08745
C        -31.33523       54.06053       83.50222
C        -32.04759       53.14735       84.49970
O        -32.27943       54.52127       82.56577
H        -32.26063       56.64305       84.20675
H        -29.96820       54.83256       84.99953
H        -30.56841       53.42287       83.00488
H        -31.91495       54.34858       81.65860
H        -31.31994       52.74327       85.23574
H        -32.84592       53.69711       85.04097
H        -32.50904       52.29382       83.95886
N        -28.46796       55.38546       82.98124
C        -27.76727       55.78159       81.74275
C        -28.48507       55.23179       80.50859
O        -28.66965       54.02770       80.40620
C        -26.29578       55.25827       81.80331
C        -25.53667       55.96050       82.96065
C        -25.56027       55.47035       80.46247
C        -24.12794       55.41093       83.20141
H        -28.56540       54.34551       83.00892
H        -27.71656       56.89098       81.67614
H        -26.32276       54.16269       81.99806
H        -26.10041       55.82264       83.90753
H        -25.46863       57.05236       82.75617
H        -24.53487       55.05502       80.48951
H        -26.06970       54.91743       79.64918
H        -25.51268       56.54781       80.20089
H        -23.67004       55.93914       84.06382
H        -24.17560       54.32607       83.43355
H        -23.46430       55.57323       82.32894
N        -28.82592       56.07768       79.49234
C        -29.29649       55.62506       78.18505
C        -28.12700       55.69112       77.21897
O        -27.04054       56.06539       77.62660
C        -30.46217       56.50048       77.67584
C        -31.69681       56.37934       78.51845
O        -32.73122       55.94925       78.03402
O        -31.68482       56.77517       79.79927
H        -28.59298       57.07451       79.58751
H        -29.62060       54.56249       78.22224
H        -30.73034       56.18511       76.64509
H        -30.14970       57.56709       77.63425
N        -28.25799       55.27754       75.92555
C        -27.12064       55.26638       75.01350
C        -26.61674       56.67677       74.71299
O        -25.41083       56.86500       74.81307
C        -27.40608       54.41043       73.76087
C        -26.14698       54.10774       72.97518
C        -26.04890       54.46152       71.62001
C        -25.06369       53.44086       73.58623
C        -24.89100       54.15930       70.89416
C        -23.90733       53.15090       72.86011
C        -23.82085       53.50820       71.51434
H        -29.16048       54.89921       75.60733
H        -26.31242       54.72352       75.54615
H        -28.17587       54.88120       73.12121
H        -27.81109       53.43100       74.09704
H        -26.86928       54.96277       71.12284
H        -25.10467       53.13848       74.62445
H        -24.82344       54.42791       69.84861
H        -23.08052       52.64398       73.34200
H        -22.92572       53.27593       70.95238
N        -27.42481       57.74365       74.40023
C        -26.93785       59.11121       74.22401
C        -26.26494       59.73852       75.45111
O        -25.79059       60.85759       75.33565
C        -28.20399       59.91683       73.90293
C        -29.07149       58.88110       73.22654
C        -28.84526       57.66645       74.12371
H        -26.23560       59.10034       73.35998
H        -28.72891       60.17807       74.85251
H        -28.02541       60.85400       73.33309
H        -30.13592       59.17112       73.09921
H        -28.63116       58.67184       72.22410
H        -29.40295       57.76369       75.08001
H        -29.15554       56.76215       73.57231
N        -26.20805       59.08946       76.65362
C        -25.59719       59.63745       77.86315
C        -24.34763       58.85476       78.25876
O        -23.63911       59.30953       79.14772
C        -26.59883       59.55265       79.03580
C        -27.97236       60.16799       78.72827
C        -28.96383       59.91320       79.83178
O        -30.12726       60.24420       79.67793
O        -28.60021       59.29194       80.97170
H        -26.63780       58.17061       76.73562
H        -25.29692       60.69272       77.68584
H        -26.16286       60.02228       79.94508
H        -26.76018       58.47469       79.25285
H        -28.38628       59.69091       77.81528
H        -27.87730       61.26072       78.55151
N        -24.02841       57.66241       77.67667
C        -22.86103       56.87563       78.00622
H        -22.21797       57.36687       78.76345
H        -23.18584       55.88723       78.39472
H        -22.26601       56.71157       77.08290
H        -24.64542       57.25173       76.97418
Ca       -31.32769       58.47542       82.08755
O        -30.54759       58.76792       84.97004
H        -30.69280       59.45463       85.66756
H        -29.64482       58.95029       84.60936

Ca 1.0



