%chk=holoCaM.loop2.water1.frame107.chk
%nprocshared=20
%mem=10GB
%nosave
#b3lyp/svp scf=(tight,noincore,xqc) Test 
#IOP(5/87=12) Density=Current Pop=(MK,readradii) iop(6/33=2) iop(6/42=6)

holoCaM.loop2.water1.frame107 

   -2  1 
C         75.03809       21.33863       22.60961
C         74.08718       21.87194       21.57563
O         74.48719       22.05264       20.43545
H         75.89202       22.03488       22.73447
H         74.53861       21.21299       23.59458
H         75.41606       20.34564       22.28661
N         72.79169       22.12170       21.90418
C         71.78835       22.56610       20.94337
C         72.08446       23.95666       20.39136
O         72.64672       24.78035       21.09943
C         70.40717       22.55548       21.63488
C         69.28954       22.92139       20.71288
O         68.50703       23.98173       20.99026
O         69.08306       22.25601       19.71284
H         72.49527       21.93409       22.87533
H         71.76220       21.83243       20.10633
H         70.41578       23.26053       22.49521
H         70.20392       21.53367       22.02328
N         71.59348       24.31269       19.16600
C         71.64994       25.66992       18.62426
C         70.71363       25.78306       17.41793
O         71.13457       26.17546       16.33912
C         73.09602       26.06770       18.28336
H         71.08177       23.59529       18.63014
H         71.25262       26.37044       19.39119
H         73.74611       26.02200       19.18068
H         73.51327       25.38676       17.51063
H         73.12492       27.10995       17.89893
N         69.40352       25.42171       17.56862
C         68.37370       25.44555       16.51400
C         67.00134       24.90159       16.96341
O         66.02812       25.19847       16.28386
C         68.80675       24.69279       15.23303
C         69.40467       23.35490       15.55625
O         68.72939       22.43346       16.26663
O         70.55974       23.12708       15.23542
H         69.14973       25.12693       18.51533
H         68.20912       26.51189       16.24218
H         69.57419       25.28991       14.69636
H         67.95030       24.58990       14.53201
N         66.82668       24.11063       18.06434
C         65.53261       23.67551       18.56158
C         64.81592       22.63425       17.72614
O         63.71481       22.27691       18.12124
H         67.62377       23.82695       18.62863
H         64.88468       24.56788       18.69821
H         65.67843       23.21344       19.56342
N         65.33931       22.07934       16.59179
C         64.59287       21.09053       15.81245
C         64.30202       19.79366       16.57497
O         63.46566       19.03382       16.10514
C         65.26791       20.79439       14.45239
C         66.63814       20.16216       14.52062
N         67.26291       19.80544       13.37629
O         67.18919       19.96580       15.59189
H         66.25497       22.39392       16.25021
H         63.60979       21.55629       15.57647
H         65.35655       21.74283       13.87959
H         64.60469       20.11140       13.87848
H         66.81738       19.96307       12.46094
H         68.18751       19.35705       13.40389
N         64.94463       19.46228       17.73477
C         64.61520       18.28701       18.53378
C         65.69372       17.21764       18.53455
O         65.53239       16.24743       19.25841
H         65.69642       20.07113       18.08450
H         63.68398       17.79752       18.17394
H         64.42427       18.62631       19.57443
N         66.76914       17.27722       17.69589
C         67.75199       16.20159       17.55347
C         69.17586       16.73859       17.67472
O         69.36030       17.92838       17.87668
C         67.54786       15.51849       16.17107
C         66.16621       14.85533       16.04822
O         67.77529       16.42064       15.11384
H         66.85317       18.07510       17.05935
H         67.61141       15.42482       18.33652
H         68.27451       14.68871       16.05777
H         66.97491       16.99980       15.01925
H         66.08350       14.34118       15.06733
H         66.03350       14.10023       16.85257
H         65.35066       15.60487       16.12332
N         70.23896       15.89751       17.49141
C         71.62530       16.34354       17.42601
C         72.06122       16.27968       15.97106
O         72.11921       15.20471       15.39124
C         72.52315       15.48927       18.37450
C         72.24793       15.89996       19.84510
C         74.01791       15.63844       18.03577
C         73.02197       15.08428       20.88483
H         70.05947       14.90320       17.29559
H         71.71281       17.40713       17.73803
H         72.27417       14.41454       18.22617
H         71.16505       15.78059       20.06059
H         72.51210       16.97296       19.98209
H         74.34521       16.68676       18.15964
H         74.63111       14.97394       18.67240
H         74.22740       15.31091       16.99668
H         72.74905       15.43461       21.90230
H         72.77112       14.00713       20.79550
H         74.11802       15.22029       20.78296
N         72.35777       17.43980       15.31995
C         72.79322       17.51404       13.92946
C         74.26887       17.13814       13.81768
O         74.88668       16.81240       14.81829
C         72.57860       18.95313       13.39748
C         71.13181       19.36878       13.41213
O         70.45386       19.45779       14.57159
O         70.56983       19.65304       12.36637
H         72.24426       18.32453       15.83440
H         72.17453       16.83530       13.30161
H         72.91678       19.01114       12.34319
H         73.16993       19.67774       13.99958
N         74.90313       17.18667       12.60852
C         76.33316       16.93866       12.44130
C         77.19553       17.94772       13.20599
O         78.06579       17.48424       13.93313
C         76.71494       16.90575       10.94574
C         78.16702       16.52408       10.75017
C         78.64737       15.28115       11.20655
C         79.05538       17.40580       10.11141
C         79.98989       14.93454       11.03489
C         80.39783       17.05204        9.93811
C         80.86481       15.81895       10.40115
H         74.34896       17.41216       11.77101
H         76.54126       15.92166       12.83823
H         76.50078       17.88799       10.47964
H         76.08705       16.14966       10.42676
H         77.98728       14.57802       11.69777
H         78.71170       18.36654        9.74945
H         80.35112       13.97910       11.39369
H         81.07753       17.73487        9.44559
H         81.90410       15.54762       10.26839
N         77.05662       19.31413       13.13849
C         77.88495       20.24762       13.89535
C         77.61436       20.23094       15.40347
O         78.26391       20.98821       16.10641
C         77.56243       21.60762       13.26234
C         76.10861       21.44098       12.88779
C         76.09845       20.02755       12.31223
H         78.96798       20.04277       13.74148
H         77.80807       22.49840       13.87966
H         78.12308       21.68796       12.30262
H         75.51844       21.44453       13.83179
H         75.69209       22.21570       12.20904
H         75.07119       19.64761       12.38586
H         76.45218       20.01372       11.26039
N         76.70205       19.38626       15.97023
C         76.44668       19.29715       17.40681
C         76.83969       17.93065       17.95999
O         76.74306       17.74774       19.16765
C         74.95075       19.56479       17.66078
C         74.56321       20.97281       17.20003
C         73.09065       21.23242       17.25649
O         72.20404       20.29201       17.64248
O         72.67884       22.31903       16.88754
H         76.14652       18.77487       15.37000
H         77.05180       20.04732       17.96081
H         74.70968       19.46106       18.74230
H         74.35935       18.81396       17.09258
H         74.85967       21.11583       16.14090
H         75.09832       21.72272       17.82056
N         77.30102       16.92589       17.16296
C         77.71667       15.64114       17.67839
H         78.57330       15.77182       18.37133
H         76.88076       15.14821       18.21009
H         78.03456       14.98508       16.83903
H         77.36974       17.05568       16.15039
Ca        70.08815       20.89652       17.18211
O         67.80782       19.78494       19.49297
H         67.11273       19.31415       20.01606
H         68.62675       19.70489       20.04243

Ca 1.0



