%chk=holoCaM-CaMKII.loop2.water2.frame249.chk
%nprocshared=20
%mem=10GB
%nosave
#b3lyp/svp scf=(tight,noincore,xqc) Test 
#IOP(5/87=12) Density=Current Pop=(MK,readradii) iop(6/33=2) iop(6/42=6)

holoCaM-CaMKII.loop2.water2.frame249 

   -2  1 
C        106.40134        9.75036       39.66693
C        106.68143        9.10029       38.34420
O        107.46155        8.16252       38.28592
H        105.31817        9.66110       39.89851
H        106.97891        9.26288       40.48053
H        106.67360       10.82552       39.62240
N        106.05178        9.55149       37.22770
C        106.20615        8.94079       35.91324
C        107.63738        9.02067       35.40634
O        108.17099       10.11599       35.29601
C        105.25856        9.62649       34.91278
C        105.37504        9.00665       33.55539
O        105.66860        9.69464       32.59093
O        105.18973        7.68111       33.40740
H        105.39950       10.34519       37.33280
H        105.89430        7.87517       35.98473
H        105.48415       10.71470       34.84981
H        104.21212        9.50760       35.26530
N        108.29256        7.88199       35.02843
C        109.64036        7.87050       34.47183
C        109.70327        7.28976       33.05661
O        110.78277        7.33704       32.48236
C        110.54580        7.04978       35.39684
H        107.81190        6.97867       35.14009
H        110.04000        8.90637       34.41944
H        111.59308        7.04797       35.02651
H        110.53595        7.47905       36.42096
H        110.18639        5.99811       35.45121
N        108.63511        6.68501       32.44645
C        108.72972        6.03188       31.13376
C        107.65340        6.46427       30.13278
O        107.70375        6.00710       28.99909
C        108.72126        4.50027       31.33226
C        107.46854        3.92842       31.94480
O        107.41334        2.60918       32.20355
O        106.50817        4.63154       32.21363
H        107.75312        6.59890       32.96487
H        109.70687        6.27587       30.66267
H        109.57333        4.24004       31.99720
H        108.88936        3.99879       30.35489
N        106.65570        7.32950       30.46496
C        105.62623        7.78353       29.54188
C        104.75774        6.66203       29.01369
O        104.67595        6.51023       27.80299
H        106.62906        7.71622       31.41078
H        106.10503        8.32424       28.69589
H        104.96345        8.50289       30.06990
N        104.06663        5.84615       29.86163
C        103.17200        4.78124       29.40147
C        101.74981        4.92425       29.95326
O        100.95129        4.01759       29.76044
C        103.80479        3.39979       29.67005
C        104.05755        3.00158       31.09719
N        104.66298        1.81489       31.33608
O        103.73861        3.72472       32.02854
H        104.19304        5.97783       30.87675
H        103.06852        4.81033       28.29466
H        104.78510        3.37945       29.14451
H        103.16200        2.61666       29.21262
H        104.94164        1.20218       30.55616
H        104.87505        1.50259       32.28928
N        101.33601        6.06872       30.57385
C         99.97257        6.30717       31.03349
C         99.54032        5.51693       32.25850
O         98.40727        5.70949       32.67631
H        101.98603        6.86096       30.63713
H         99.26761        6.11538       30.19492
H         99.88032        7.38078       31.30668
N        100.35133        4.61704       32.88451
C         99.93743        3.81767       34.03715
C        100.92943        3.95002       35.17801
O        102.11318        3.72856       34.96507
C         99.82111        2.32905       33.63169
C         98.62740        2.09614       32.70519
O        100.98937        1.88590       32.98798
H        101.29365        4.44845       32.51079
H         98.93526        4.12219       34.41310
H         99.61893        1.71443       34.54262
H        101.60108        1.54877       33.69002
H         97.68709        2.40220       33.21386
H         98.73422        2.67308       31.76342
H         98.55047        1.01586       32.45945
N        100.50341        4.23304       36.44593
C        101.40836        4.18354       37.59361
C        101.90808        2.75170       37.72675
O        101.08943        1.84714       37.83158
C        100.73500        4.62986       38.93441
C        100.11388        6.04957       38.81728
C        101.78947        4.59411       40.06901
C         99.44481        6.54111       40.10590
H         99.50133        4.41405       36.59994
H        102.25321        4.88404       37.41234
H         99.91997        3.91500       39.18725
H         99.32392        6.04329       38.04001
H        100.88916        6.78571       38.51481
H        102.23608        3.58537       40.17625
H        102.60676        5.31981       39.86363
H        101.34128        4.82672       41.05461
H         98.67518        5.81665       40.44763
H        100.18782        6.69997       40.91359
H         98.95425        7.51912       39.91853
N        103.23998        2.47979       37.75159
C        103.78981        1.13219       37.86923
C        104.42386        0.95105       39.22975
O        104.40942        1.88869       40.01443
C        104.77554        0.90455       36.71269
C        104.02651        0.89438       35.40653
O        104.19261        1.87449       34.49897
O        103.23139       -0.00213       35.17463
H        103.90320        3.26849       37.71919
H        102.98580        0.36467       37.81971
H        105.30897       -0.06387       36.81192
H        105.53754        1.71481       36.72855
N        104.90485       -0.26134       39.63048
C        105.34838       -0.49523       40.99987
C        106.59635        0.31580       41.34785
O        106.57255        0.95867       42.38591
C        105.51664       -1.99769       41.33054
C        105.45949       -2.22166       42.82717
C        106.57525       -2.68233       43.54422
C        104.25806       -1.96830       43.52020
C        106.49075       -2.87152       44.92991
C        104.17752       -2.16299       44.89953
C        105.29398       -2.61172       45.60565
H        104.85784       -1.05774       38.97445
H        104.51081       -0.14653       41.64407
H        106.45217       -2.39846       40.89908
H        104.67660       -2.58117       40.89408
H        107.50934       -2.88472       43.03654
H        103.37759       -1.62453       42.99072
H        107.35322       -3.21903       45.48271
H        103.24794       -1.96530       45.41880
H        105.22907       -2.75909       46.67596
N        107.70132        0.39209       40.52512
C        108.88350        1.22155       40.79333
C        108.63603        2.71595       41.01484
O        109.59842        3.43049       41.26425
C        109.72284        1.06758       39.51517
C        109.38388       -0.33322       39.07867
C        107.87535       -0.36206       39.29861
H        109.39537        0.78778       41.68025
H        109.31494        1.73953       38.72208
H        110.80475        1.28790       39.63813
H        109.70454       -0.60481       38.05042
H        109.86469       -1.03212       39.80177
H        107.32381        0.14821       38.47971
H        107.57652       -1.42363       39.36490
N        107.39271        3.26150       40.92685
C        107.07163        4.66855       41.10201
C        106.25384        4.82299       42.37056
O        106.65249        5.58912       43.23526
C        106.28971        5.15513       39.86666
C        107.12452        4.98670       38.58403
C        106.32663        5.19120       37.33441
O        106.88535        4.85663       36.16117
O        105.14114        5.48091       37.37521
H        106.60263        2.66121       40.68872
H        107.99180        5.28714       41.20217
H        105.98820        6.21904       39.98078
H        105.36487        4.54114       39.77584
H        107.48096        3.93674       38.52302
H        108.01233        5.65161       38.59812
N        105.12185        4.08611       42.56973
C        104.33150        4.13241       43.78184
H        103.28423        4.39659       43.52770
H        104.34009        3.12836       44.25852
H        104.71962        4.87003       44.51382
H        104.80938        3.42925       41.84629
Ca       105.49878        3.65682       34.88933
O        102.94797        7.13342       36.06499
H        103.14398        7.31820       37.01745
H        102.22799        7.77224       35.83492
O        102.46504        7.31876       33.09882
H        102.91990        7.87176       32.41505
H        101.65389        7.83684       33.32482

Ca 1.0



