%chk=holoCaM.loop1.water2.frame339.chk
%nprocshared=20
%mem=10GB
%nosave
#b3lyp/svp scf=(tight,noincore,xqc) Test 
#IOP(5/87=12) Density=Current Pop=(MK,readradii) iop(6/33=2) iop(6/42=6)

holoCaM.loop1.water2.frame339 

   0  1 
C        -11.62421       37.22471       21.17782
C        -12.18332       38.30507       20.30352
O        -12.13505       39.46656       20.67763
H        -11.18486       37.65198       22.10393
H        -12.45232       36.54134       21.46730
H        -10.85021       36.64762       20.63240
N        -12.76411       37.97900       19.11801
C        -13.47877       38.94047       18.28705
C        -14.67556       39.46558       19.06263
O        -15.47529       38.67236       19.53928
C        -13.91568       38.26689       16.96718
C        -14.92754       39.07314       16.19721
O        -14.67139       40.32443       15.77022
O        -16.01013       38.57137       15.95822
H        -12.73899       36.98937       18.82551
H        -12.80467       39.78336       18.02626
H        -14.38598       37.28650       17.19596
H        -13.01562       38.07720       16.34082
N        -14.85739       40.80818       19.20603
C        -15.92853       41.40858       19.98982
C        -16.95913       42.13374       19.13006
O        -17.90939       42.64624       19.70494
C        -15.32985       42.40694       21.01239
C        -14.30482       41.81876       21.99690
C        -14.88406       40.66322       22.82256
C        -13.93473       40.23770       23.94830
N        -14.49919       39.11618       24.69915
H        -14.19880       41.43423       18.73327
H        -16.49327       40.62302       20.53403
H        -16.15680       42.84661       21.61151
H        -14.83381       43.23959       20.46515
H        -14.00146       42.64210       22.68091
H        -13.39623       41.48244       21.45713
H        -15.07257       39.79444       22.15687
H        -15.84410       40.98535       23.28062
H        -13.78047       41.09885       24.63698
H        -12.94780       39.94099       23.52926
H        -15.44266       39.36882       25.07441
H        -14.58175       38.27856       24.07801
H        -13.86874       38.88448       25.50004
N        -16.86385       42.21852       17.76902
C        -17.84289       42.92958       16.94190
C        -18.50891       42.01354       15.91252
O        -19.31048       42.49756       15.12464
C        -17.13086       44.06238       16.18826
C        -16.28920       44.92570       17.08290
O        -16.84362       45.59761       18.10821
O        -15.08873       45.01414       16.88203
H        -16.05942       41.79351       17.29012
H        -18.63957       43.37863       17.57402
H        -17.88072       44.69486       15.66461
H        -16.47030       43.60076       15.43336
N        -18.20947       40.68830       15.84015
C        -18.72029       39.78449       14.82265
C        -18.22677       40.13309       13.42993
O        -19.03291       40.17083       12.51212
H        -17.58029       40.27991       16.54049
H        -19.82983       39.73186       14.86123
H        -18.33991       38.76563       15.04673
N        -16.90275       40.37928       13.20173
C        -16.31418       40.60210       11.88197
C        -15.13825       39.64905       11.59835
O        -14.55147       39.76110       10.53061
C        -15.91659       42.08485       11.70240
C        -14.95394       42.62479       12.71906
O        -13.86568       42.10948       12.88311
O        -15.26507       43.73468       13.40889
H        -16.27618       40.42473       14.01116
H        -17.06944       40.40822       11.08818
H        -16.83907       42.70506       11.73958
H        -15.47320       42.21454       10.69153
N        -14.77440       38.65194       12.46188
C        -13.75424       37.65097       12.16251
C        -12.30030       38.10087       12.26541
O        -11.44495       37.25259       12.05711
H        -15.31749       38.50433       13.32232
H        -13.95172       37.21732       11.15720
H        -13.86407       36.82456       12.89857
N        -11.92579       39.37197       12.59274
C        -10.52610       39.79301       12.76628
C        -10.30338       40.40745       14.17011
O        -10.95986       39.64676       15.11639
C        -10.10523       40.80750       11.66509
C         -9.45562       40.09284       10.48518
O        -11.19961       41.54703       11.18993
H        -12.65912       40.06993       12.74909
H         -9.85075       38.91044       12.72695
H         -9.31896       41.50100       12.04151
H        -11.54539       42.06616       11.95377
H         -9.16033       40.83844        9.71633
H         -8.53214       39.57880       10.83282
H        -10.14456       39.34901       10.03644
N         -8.86127       40.50894       14.50681
C         -8.55187       40.83272       15.92349
C         -7.50618       41.94307       15.92602
O         -6.38900       41.72784       15.47701
C         -8.05571       39.57786       16.75003
C         -9.14973       38.47687       16.83314
C         -7.61683       39.98952       18.16988
C         -8.78653       37.22057       17.62282
H         -8.30719       39.68243       14.18372
H         -9.46402       41.23312       16.42143
H         -7.16293       39.15082       16.24190
H         -9.36788       38.11943       15.80702
H        -10.06668       38.90432       17.29879
H         -7.17910       39.13003       18.71593
H         -6.81843       40.75703       18.13782
H         -8.47799       40.37671       18.74707
H         -9.63820       36.50738       17.56778
H         -7.88790       36.73696       17.18859
H         -8.62235       37.44485       18.69560
N         -7.83162       43.17639       16.40784
C         -6.93068       44.32800       16.43352
C         -6.00965       44.27835       17.64977
O         -6.11224       43.35734       18.44778
C         -7.76958       45.64173       16.46345
C         -8.66005       45.77090       15.22179
O         -8.56686       45.67394       17.61901
H         -8.79732       43.31953       16.72373
H         -6.32047       44.34729       15.50266
H         -7.07913       46.51399       16.46722
H         -8.88952       46.60651       17.72671
H         -9.22756       46.72497       15.26293
H         -8.04042       45.76934       14.30085
H         -9.38878       44.93757       15.16881
N         -5.11167       45.28140       17.87555
C         -4.30364       45.40437       19.09146
C         -5.19077       45.49765       20.32090
O         -4.91313       44.82053       21.29881
C         -3.38273       46.64972       19.04112
C         -2.28381       46.49152       17.98475
O         -4.14026       47.80686       18.78906
H         -5.03464       46.02537       17.16592
H         -3.64518       44.51315       19.20708
H         -2.88033       46.74068       20.03365
H         -3.55590       48.58501       18.98488
H         -2.71167       46.38780       16.96720
H         -1.61590       47.37859       18.00324
H         -1.66914       45.59420       18.21330
N         -6.29130       46.30310       20.32771
C         -7.20566       46.39472       21.46376
C         -7.75411       45.01848       21.80616
O         -7.63535       44.58668       22.94515
C         -8.39436       47.34098       21.14555
C         -7.97177       48.80117       20.90427
C         -9.19768       49.67725       20.59026
C         -8.85767       51.16808       20.41011
N         -7.97644       51.41301       19.26648
H         -6.50499       46.83435       19.47207
H         -6.66648       46.80153       22.34811
H         -9.09824       47.32727       22.00786
H         -8.94152       46.96890       20.25203
H         -7.26498       48.84971       20.05332
H         -7.46534       49.18741       21.81506
H         -9.91744       49.59860       21.43441
H         -9.70160       49.30355       19.67147
H         -8.38872       51.56424       21.33768
H         -9.81078       51.71977       20.24831
H         -8.40159       51.02701       18.39239
H         -7.85133       52.44486       19.15166
H         -7.03492       50.99023       19.42556
N         -8.38805       44.28577       20.85220
C         -9.04497       43.00496       21.10322
C         -8.06176       41.87520       21.40402
O         -8.51612       40.80506       21.78365
C         -9.91672       42.62614       19.88161
C        -10.99236       43.69696       19.60105
C        -11.74242       43.44286       18.33047
O        -11.15054       43.34921       17.26914
O        -13.08289       43.42015       18.33876
H         -8.44066       44.69544       19.91112
H         -9.71746       43.12878       21.98163
H        -10.41582       41.64576       20.04626
H         -9.24703       42.53801       18.99928
H        -10.53421       44.69587       19.47990
H        -11.69905       43.74918       20.45747
N         -6.71600       42.02052       21.23241
C         -5.74778       40.97374       21.49309
H         -5.00068       41.34066       22.22833
H         -6.21399       40.05117       21.89623
H         -5.21997       40.71895       20.54945
H         -6.34262       42.90342       20.87536
Ca       -12.57886       40.99526       15.82936
O        -11.52364       44.18425       13.47687
H        -11.30069       45.10546       13.75468
H        -11.46392       44.22216       12.49062
O        -12.17144       45.85869       16.10620
H        -12.66525       46.13829       16.91659
H        -12.39530       46.54436       15.42840

Ca 1.0



