%chk=holoCaM-CaMKII.loop1.water2.frame171.chk
%nprocshared=20
%mem=10GB
%nosave
#b3lyp/svp scf=(tight,noincore,xqc) Test 
#IOP(5/87=12) Density=Current Pop=(MK,readradii) iop(6/33=2) iop(6/42=6)

holoCaM-CaMKII.loop1.water2.frame171 

   0  1 
C        107.83897       58.26029       11.13642
C        108.44626       59.61582       10.98434
O        108.97147       60.14221       11.95549
H        106.76213       58.30302       10.87760
H        108.36051       57.55094       10.45964
H        107.95070       57.90263       12.18277
N        108.44875       60.23558        9.77109
C        109.11612       61.50999        9.58230
C        108.38595       62.61536       10.34896
O        107.25397       62.93262       10.00999
C        109.22427       61.86640        8.08479
C        110.16943       63.01053        7.88843
O        110.90406       63.43781        8.93227
O        110.32080       63.49798        6.78486
H        108.03316       59.75057        8.96050
H        110.15364       61.36976        9.96541
H        108.21723       62.11732        7.68512
H        109.62740       61.00697        7.50570
N        108.96856       63.20465       11.42977
C        108.27400       64.14476       12.30623
C        108.31470       65.58718       11.81960
O        107.37005       66.31148       12.10115
C        108.84979       64.11085       13.73992
C        108.89212       62.71953       14.40297
C        107.53745       61.99593       14.40821
C        107.61491       60.69979       15.22575
N        106.35297       59.96357       15.16165
H        109.87532       62.83230       11.72793
H        107.20987       63.83385       12.40030
H        108.22314       64.77646       14.37537
H        109.88536       64.51711       13.74041
H        109.23652       62.86886       15.44961
H        109.63905       62.07389       13.89398
H        107.25125       61.74718       13.36361
H        106.75669       62.65307       14.84843
H        107.84108       60.95505       16.28528
H        108.43258       60.05145       14.83898
H        106.41518       59.12372       15.78134
H        105.56191       60.56634       15.48518
H        106.17717       59.64627       14.18031
N        109.40282       66.10152       11.17300
C        109.53165       67.51827       10.81090
C        109.40762       67.74670        9.30465
O        109.49327       68.89267        8.88491
C        110.80949       68.12802       11.44930
C        112.05968       67.41089       11.04850
O        112.69651       66.78444       11.88110
O        112.39827       67.33038        9.75329
H        110.17537       65.46474       10.93010
H        108.68884       68.10364       11.23779
H        110.70343       68.05658       12.55512
H        110.90411       69.20294       11.18748
N        109.07697       66.73434        8.44881
C        108.69109       66.95598        7.06332
C        109.80699       67.44965        6.18051
O        109.66318       68.51061        5.58890
H        108.97229       65.77420        8.80501
H        107.83908       67.67241        7.03871
H        108.32951       65.99776        6.63254
N        110.93207       66.70217        6.00669
C        112.00802       67.07013        5.08899
C        112.27506       66.00415        4.02089
O        113.11866       66.25202        3.17102
C        113.27824       67.42656        5.89277
C        113.88126       66.31790        6.71084
O        113.42645       65.18940        6.68847
O        114.94637       66.58202        7.48884
H        111.02296       65.84005        6.55797
H        111.72836       67.99211        4.53409
H        113.01387       68.25213        6.58795
H        114.06141       67.79789        5.19882
N        111.61494       64.80575        3.99246
C        111.83846       63.78047        2.98159
C        112.50100       62.53219        3.53820
O        112.67419       61.59557        2.76947
H        110.91516       64.58748        4.70848
H        112.49082       64.15210        2.16232
H        110.85803       63.51701        2.52844
N        112.96479       62.45686        4.82269
C        113.75504       61.33083        5.32105
C        113.46554       61.00002        6.77687
O        112.78797       61.73988        7.47461
C        115.28286       61.61076        5.17791
C        115.76275       61.62644        3.72688
O        115.66572       62.78853        5.84145
H        112.86023       63.27435        5.43083
H        113.49977       60.41709        4.74043
H        115.84578       60.77954        5.65155
H        115.13297       63.54182        5.47951
H        115.54110       60.64318        3.25785
H        115.27822       62.43328        3.14287
H        116.86336       61.77808        3.70201
N        113.99335       59.85377        7.28475
C        113.88407       59.38540        8.65843
C        115.30099       59.17684        9.17852
O        116.08033       58.51650        8.50234
C        113.09478       58.04220        8.67851
C        111.65161       58.24804        8.14558
C        113.06278       57.44355       10.10146
C        110.90382       56.93256        7.91344
H        114.51316       59.24214        6.63544
H        113.33762       60.11055        9.30127
H        113.62368       57.32860        8.00788
H        111.68419       58.76094        7.16164
H        111.07421       58.89088        8.84698
H        112.53785       58.12699       10.80199
H        112.56174       56.45709       10.11972
H        114.08887       57.26518       10.47675
H        110.76799       56.35739        8.84995
H        109.89530       57.14722        7.50271
H        111.45823       56.31002        7.17835
N        115.68464       59.63871       10.40142
C        117.00815       59.37504       10.96684
C        116.91147       58.28159       12.01107
O        115.81995       57.82807       12.30686
C        117.61731       60.66475       11.58398
C        117.84105       61.76356       10.54107
O        116.83294       61.13495       12.65549
H        114.98174       60.10244       10.99311
H        117.69849       58.99575       10.18205
H        118.62133       60.43202       11.99721
H        116.09316       61.68641       12.29121
H        118.53289       61.40864        9.74970
H        116.87721       62.04664       10.07780
H        118.28442       62.65829       11.02992
N        118.02792       57.80687       12.62418
C        117.98167       56.84475       13.72548
C        117.14620       57.39433       14.86960
O        116.36215       56.65644       15.44894
C        119.40937       56.50698       14.22992
C        120.16322       55.63575       13.22251
O        120.15293       57.67616       14.47482
H        118.94062       58.18466       12.32738
H        117.51055       55.89226       13.39260
H        119.34089       55.89180       15.15869
H        119.97268       57.95440       15.40919
H        121.17302       55.39299       13.61656
H        119.61589       54.67984       13.06989
H        120.27268       56.14686       12.24400
N        117.25217       58.70174       15.22189
C        116.51524       59.31711       16.32092
C        115.01452       59.20079       16.10747
O        114.33105       58.69325       16.98577
C        116.94333       60.79691       16.47998
C        118.44134       60.88848       16.83873
C        118.94073       62.32976       16.96593
C        120.43170       62.39381       17.35829
N        121.31157       61.77704       16.35935
H        117.88800       59.28687       14.66199
H        116.77423       58.79938       17.27174
H        116.35405       61.26711       17.29792
H        116.73996       61.35387       15.53823
H        119.03831       60.39951       16.05035
H        118.61661       60.35260       17.79652
H        118.35085       62.84813       17.75251
H        118.78930       62.86622       16.00349
H        120.58393       61.89654       18.34199
H        120.71278       63.46376       17.46924
H        121.16891       60.74300       16.31794
H        121.14727       62.20018       15.41726
H        122.30634       61.94226       16.63476
N        114.43739       59.63932       14.95504
C        112.99736       59.57962       14.69659
C        112.50745       58.13966       14.75769
O        111.64834       57.84125       15.57599
C        112.66144       60.24514       13.33758
C        113.04023       61.74344       13.35446
C        112.80968       62.43534       12.04402
O        113.35722       62.04053       11.02876
O        112.07862       63.56269       12.00290
H        115.06133       60.02535       14.23349
H        112.46311       60.15938       15.48301
H        111.57180       60.15402       13.13331
H        113.21184       59.72207       12.52749
H        114.11328       61.86831       13.58717
H        112.45944       62.26095       14.14863
N        113.04009       57.18322       13.95209
C        112.66022       55.78936       14.03320
H        111.58319       55.66966       13.79558
H        113.25681       55.19295       13.30903
H        112.86459       55.39988       15.05415
H        113.75926       57.44617       13.27461
Ca       112.21561       65.21443        9.13224
O        115.61995       63.77797        8.60243
H        116.12715       64.11670        9.37989
H        116.05938       64.21865        7.83482
O        114.83077       64.76693       11.47381
H        115.16091       65.66510       11.22016
H        115.24117       64.58620       12.35601

Ca 1.0



