%chk=holoCaM-CaMKII.loop3.water2.frame24.chk
%nprocshared=20
%mem=10GB
%nosave
#b3lyp/svp scf=(tight,noincore,xqc) Test 
#IOP(5/87=12) Density=Current Pop=(MK,readradii) iop(6/33=2) iop(6/42=6)

holoCaM-CaMKII.loop3.water2.frame24 

   0  1 
C         28.65132       63.97534       28.80290
C         27.46739       64.79778       29.20048
O         26.36838       64.27356       29.32426
H         29.47997       64.09589       29.53160
H         28.39243       62.90119       28.70213
H         28.98710       64.35479       27.81488
N         27.63301       66.13357       29.38605
C         26.52851       67.05199       29.61148
C         25.67295       67.15486       28.34459
O         26.06001       66.66501       27.29104
C         27.12012       68.42146       30.03806
C         26.15169       69.44257       30.53775
O         26.51623       70.60307       30.63829
O         25.01516       69.05526       31.14074
H         28.59409       66.50655       29.35288
H         25.90253       66.64838       30.43850
H         27.70118       68.85339       29.19747
H         27.82695       68.25907       30.88037
N         24.46246       67.76004       28.41038
C         23.48095       67.83303       27.34456
C         23.61868       69.16079       26.61614
O         23.55562       69.19443       25.39571
C         22.08343       67.70480       28.00061
C         20.98926       67.45974       26.96581
C         19.59081       67.52789       27.58157
C         18.53620       67.30303       26.49260
N         17.19585       67.52372       27.02637
H         24.15002       68.09595       29.32043
H         23.60269       66.98473       26.63632
H         21.87177       68.62214       28.59708
H         22.07535       66.83898       28.70025
H         21.15102       66.45887       26.50579
H         21.05441       68.23842       26.18069
H         19.44846       68.53373       28.03391
H         19.45981       66.76290       28.38096
H         18.62988       66.26269       26.10800
H         18.70204       68.00251       25.64083
H         17.05266       66.95520       27.89172
H         17.07912       68.53969       27.24824
H         16.48674       67.24806       26.30975
N         23.85494       70.29472       27.32980
C         24.00596       71.62159       26.74840
C         25.42949       72.15280       26.86278
O         25.70424       73.21502       26.31624
C         22.99749       72.58391       27.38260
C         23.10728       72.81769       28.86411
O         22.51004       73.78207       29.29876
O         23.76595       71.95714       29.69258
H         23.96817       70.18876       28.34150
H         23.77539       71.58831       25.66166
H         21.96906       72.20713       27.19764
H         23.10344       73.56832       26.87948
N         26.39651       71.45316       27.52529
C         27.78349       71.87094       27.60599
C         27.95300       73.15717       28.37409
O         28.95677       73.83102       28.18497
H         26.15811       70.57080       27.98627
H         28.17917       71.97485       26.57192
H         28.37105       71.08537       28.12457
N         26.99481       73.56933       29.25143
C         27.03094       74.86252       29.91398
C         28.00167       74.87629       31.09888
O         28.16391       75.92534       31.70583
C         25.58824       75.29069       30.27041
C         25.12202       74.72397       31.56997
N         24.61781       75.51688       32.53673
O         25.23218       73.54041       31.76850
H         26.17154       72.97198       29.39782
H         27.35505       75.60432       29.15250
H         24.90695       74.96942       29.44663
H         25.51073       76.39090       30.33037
H         24.55650       76.53299       32.39263
H         24.28437       75.11222       33.42401
N         28.66273       73.74077       31.49424
C         29.69005       73.70497       32.53008
C         29.27124       72.97157       33.79053
O         30.07338       72.88083       34.70963
H         28.46195       72.84538       31.02651
H         30.01179       74.72950       32.80141
H         30.56605       73.16575       32.10904
N         28.02604       72.44322       33.91074
C         27.53897       71.67387       35.04677
C         26.75626       70.44119       34.47125
O         25.79249       70.79588       33.49865
C         26.69016       72.59911       35.96673
C         27.50024       73.64009       36.74195
C         27.53795       74.98460       36.32367
C         28.18346       73.28835       37.92759
C         28.25995       75.94205       37.04920
C         28.88179       74.25557       38.66689
C         28.93160       75.58374       38.22173
O         29.61858       76.52062       38.90886
H         27.36548       72.58762       33.13898
H         28.38030       71.26620       35.65451
H         26.13677       72.00503       36.72480
H         25.93394       73.10940       35.33558
H         27.01779       75.29769       35.42928
H         28.16044       72.27193       38.29932
H         28.29381       76.96745       36.70002
H         29.38244       73.97411       39.58729
H         30.12126       76.30888       39.70882
N         26.15772       69.61285       35.53100
C         25.40141       68.41116       35.09495
C         24.27757       68.17918       36.10192
O         24.52143       68.05593       37.29409
C         26.27466       67.12006       34.85622
C         27.14234       67.28407       33.57940
C         25.36553       65.87572       34.67512
C         28.19052       66.18419       33.36726
H         26.86697       69.36951       36.25943
H         24.91304       68.61603       34.11885
H         26.92849       66.94160       35.73793
H         27.70833       68.22956       33.63091
H         26.47503       67.31814       32.69161
H         24.59173       66.06977       33.90079
H         25.93637       64.97475       34.37948
H         24.85378       65.60966       35.62328
H         28.79156       66.42478       32.46436
H         28.87226       66.14308       34.24216
H         27.74797       65.18247       33.19811
N         23.00557       68.06125       35.62690
C         21.78695       67.82799       36.38828
C         21.32498       66.39756       36.16261
O         21.86580       65.74616       35.29447
C         20.70444       68.82407       35.89718
O         21.06466       70.13668       36.22411
H         22.89670       68.05819       34.61760
H         21.98598       67.93234       37.47367
H         19.71463       68.60993       36.34743
H         20.60675       68.72829       34.78585
H         20.41395       70.72869       35.75902
N         20.38613       65.81946       36.96983
C         19.93326       64.42018       36.86828
C         19.18338       64.16548       35.57916
O         19.39855       63.14657       34.93692
C         19.02562       64.06007       38.05309
H         20.01123       66.39941       37.73331
H         20.80817       63.73488       36.92370
H         19.57325       64.22025       39.00618
H         18.09882       64.67166       38.06292
H         18.73651       62.98680       38.00340
N         18.32700       65.10930       35.11490
C         17.67941       65.05774       33.80940
C         18.69371       64.86353       32.67539
O         18.37435       64.20916       31.69369
C         16.91020       66.37111       33.61610
H         18.19016       65.94986       35.69933
H         16.94534       64.22351       33.77491
H         17.58628       67.24931       33.73472
H         16.43885       66.41366       32.61516
H         16.11972       66.44170       34.39644
N         19.93171       65.42141       32.75504
C         20.95671       65.38996       31.70714
C         21.80621       64.13351       31.78880
O         22.12802       63.56470       30.75492
C         21.82090       66.66080       31.83143
C         20.93762       67.91346       31.64805
C         21.72124       69.17236       31.80280
O         21.61031       70.07830       30.99698
O         22.55825       69.31383       32.82932
H         20.13252       65.97415       33.59717
H         20.48730       65.41671       30.69826
H         22.64020       66.66727       31.08161
H         22.29127       66.67489       32.83832
H         20.12824       67.91928       32.40854
H         20.46252       67.91074       30.64549
N         22.15972       63.61702       32.99459
C         22.83310       62.35615       33.18607
H         23.78084       62.51043       33.74378
H         22.16353       61.71151       33.79510
H         23.03901       61.84202       32.22725
H         21.87649       64.09862       33.84089
Ca        24.14266       71.38813       31.92562
O         23.38301       71.34424       34.64258
H         23.28976       71.84234       35.48834
H         22.51105       70.90244       34.52374
O         21.73252       72.87987       32.08844
H         22.10860       73.46990       31.40668
H         20.97524       73.41619       32.41556

Ca 1.0



