%chk=holoCaM.loop4.water3.frame370.chk
%nprocshared=20
%mem=10GB
%nosave
#b3lyp/svp scf=(tight,noincore,xqc) Test 
#IOP(5/87=12) Density=Current Pop=(MK,readradii) iop(6/33=2) iop(6/42=6)

holoCaM.loop4.water3.frame370 

   -3  1 
C         20.35158       13.55579       57.70209
C         21.50855       13.74245       56.76358
O         21.59740       14.79789       56.16055
H         19.39652       13.63147       57.14186
H         20.39131       12.57127       58.21312
H         20.37933       14.35208       58.47671
N         22.43810       12.76008       56.59328
C         23.62656       12.89119       55.74635
C         24.37656       11.56069       55.72486
O         24.73441       11.05547       56.78141
C         24.55586       14.00572       56.28230
C         25.89175       14.03697       55.57905
O         26.86901       13.67241       56.21319
O         26.07455       14.44140       54.29503
H         22.29293       11.87479       57.10488
H         23.32040       13.15042       54.71115
H         24.74284       13.77127       57.35510
H         24.08956       15.00930       56.24141
N         24.65918       10.95407       54.53772
C         25.34358        9.66918       54.41155
C         26.69429        9.77931       53.69418
O         27.37255        8.76478       53.62532
C         24.41633        8.63167       53.69281
C         23.97064        9.12480       52.28596
C         23.20173        8.30867       54.58209
C         23.21938        8.08276       51.45695
H         24.36842       11.43363       53.67908
H         25.58713        9.26736       55.42044
H         24.99369        7.68822       53.57054
H         24.86660        9.42193       51.69999
H         23.30487       10.00377       52.38663
H         22.57706        7.50855       54.13675
H         23.54417        7.93652       55.57094
H         22.57139        9.20981       54.73811
H         22.26955        7.78019       51.94113
H         22.96184        8.52298       50.46920
H         23.85700        7.18987       51.29138
N         27.14635       10.93930       53.12096
C         28.41470       11.02156       52.38014
C         29.35003       12.14703       52.84097
O         30.45049       12.23189       52.31067
C         28.12802       11.11853       50.86652
C         27.33424       12.32037       50.42775
O         26.89325       13.23423       51.31074
O         27.07457       12.46209       49.24424
H         26.54299       11.76817       53.15107
H         28.99014       10.08034       52.51686
H         27.56427       10.21002       50.56195
H         29.09512       11.11598       50.31772
N         29.01130       13.02883       53.82164
C         29.90120       14.06629       54.33509
C         30.23201       15.20598       53.37951
O         30.97058       16.08751       53.79696
H         28.10476       12.92255       54.28261
H         30.84479       13.59143       54.68034
H         29.41763       14.53353       55.22082
N         29.74155       15.28494       52.10822
C         30.07035       16.38065       51.18983
C         29.50187       17.74694       51.59247
O         29.74526       18.69762       50.86024
C         29.64581       16.03351       49.73852
C         28.17865       15.77142       49.52265
O         27.31049       15.75846       50.54759
O         27.77297       15.53380       48.39694
H         29.15485       14.51821       51.75970
H         31.17815       16.48334       51.15536
H         30.19991       15.12749       49.41338
H         29.95237       16.86916       49.07108
N         28.76378       17.95200       52.72316
C         28.23238       19.26161       53.07536
C         27.02890       19.66513       52.24408
O         26.51753       20.75074       52.47888
H         28.59210       17.18190       53.38119
H         29.03775       20.02528       53.00970
H         27.89379       19.24643       54.13175
N         26.49248       18.84368       51.29225
C         25.29887       19.16562       50.52551
C         24.19269       18.11185       50.82194
O         24.11205       17.91410       52.20908
C         25.63945       19.22729       49.01499
C         26.79124       20.20548       48.71487
C         27.04525       20.39852       47.23687
N         28.04758       21.21108       46.82941
O         26.34961       19.83688       46.40242
H         26.92440       17.94024       51.10785
H         24.91257       20.16296       50.83166
H         24.74857       19.56814       48.45045
H         25.92404       18.21695       48.64536
H         27.72273       19.82063       49.18298
H         26.55546       21.19937       49.15140
H         28.64784       21.69009       47.51672
H         28.22657       21.36116       45.82517
N         22.89347       18.61867       50.36183
C         21.76281       17.68531       50.49800
C         21.52224       16.93192       49.19717
O         21.37936       17.55007       48.15102
C         20.50783       18.49394       50.92513
C         19.24503       17.61693       50.98879
C         20.73706       19.12950       52.30769
H         22.90538       19.06786       49.42032
H         21.94832       16.95041       51.31476
H         20.32455       19.30479       50.18579
H         19.38280       16.76897       51.69404
H         18.37372       18.22129       51.31923
H         18.99932       17.21814       49.98465
H         20.89695       18.34124       53.07392
H         21.62308       19.79790       52.29919
H         19.85510       19.73251       52.60888
N         21.36475       15.58173       49.22932
C         20.99719       14.77039       48.07829
C         19.50946       14.45569       48.15866
O         18.86536       14.80631       49.13604
C         21.88241       13.49565       48.10268
C         21.65095       12.48995       47.00410
N         21.85222       12.81337       45.70759
O         21.30582       11.35409       47.29430
H         21.39859       15.11456       50.14296
H         21.16137       15.33829       47.13671
H         21.72147       12.98376       49.07668
H         22.94653       13.80035       48.05110
H         22.15734       13.75946       45.44090
H         21.70716       12.10868       44.96981
N         18.88248       13.84334       47.12216
C         17.47607       13.44887       47.13925
C         17.21910       12.38334       48.20040
O         16.27100       12.54054       48.95657
C         16.98285       13.09952       45.70971
C         17.87151       12.17454       44.90877
C         18.67535       12.71329       43.88484
C         17.91816       10.79759       45.15648
C         19.52719       11.89564       43.14442
C         18.76725        9.97447       44.40496
C         19.57946       10.52131       43.40397
O         20.40543        9.72149       42.70018
H         19.43701       13.66723       46.27673
H         16.85055       14.32976       47.41631
H         16.97063       14.07670       45.17641
H         15.92928       12.74532       45.71033
H         18.66093       13.77551       43.67172
H         17.29385       10.36493       45.92459
H         20.14990       12.33503       42.37491
H         18.79825        8.91095       44.60263
H         20.99063       10.06888       42.01121
N         18.05033       11.31317       48.37200
C         17.86548       10.32938       49.44630
C         18.06972       10.90978       50.85163
O         17.82176       10.18572       51.80629
C         18.84176        9.13658       49.29214
C         18.66157        8.33485       47.99553
C         17.28892        7.72951       47.89450
O         16.56043        8.00830       46.95601
O         16.85762        6.87115       48.83864
H         18.83675       11.20214       47.71987
H         16.82366        9.94418       49.38478
H         18.69841        8.43009       50.14016
H         19.88729        9.51393       49.34159
H         19.40730        7.51201       47.98106
H         18.86537        8.98175       47.12174
N         18.51810       12.18093       51.06667
C         18.73766       12.75724       52.39297
C         17.74518       13.87722       52.68603
O         17.72334       14.34910       53.81501
C         20.15821       13.35403       52.47022
C         21.28125       12.36514       52.11004
C         22.61351       13.05548       51.94342
O         23.68081       12.35544       51.52024
O         22.73185       14.25398       52.13487
H         18.73391       12.76872       50.26083
H         18.60514       11.97871       53.17552
H         20.35094       13.78300       53.47936
H         20.18231       14.18605       51.73765
H         21.05279       11.88634       51.13664
H         21.35381       11.57402       52.88694
N         16.91610       14.38192       51.72767
C         15.98581       15.45530       51.99178
H         15.23662       15.12806       52.74197
H         16.52990       16.34909       52.36363
H         15.45591       15.73047       51.05399
H         16.94795       14.02568       50.76767
Ca        24.99220       15.87642       52.87194
O         22.48363       16.62549       54.23856
H         22.81422       15.69425       54.21030
H         22.98066       17.03775       54.98805
O         24.60655       15.03108       49.66363
H         24.90573       14.10403       49.48822
H         24.96994       15.55514       48.90647
O         26.28594       17.46328       54.70995
H         26.65885       16.97682       55.48569
H         25.36335       17.70323       54.97239

Ca 1.0



