%chk=holoCaM.loop3.water3.frame462.chk
%nprocshared=20
%mem=10GB
%nosave
#b3lyp/svp scf=(tight,noincore,xqc) Test 
#IOP(5/87=12) Density=Current Pop=(MK,readradii) iop(6/33=2) iop(6/42=6)

holoCaM.loop3.water3.frame462 

   0  1 
C         28.44534       64.17450       65.29064
C         28.69723       63.10986       66.31562
O         28.60168       61.93106       66.00533
H         27.60872       64.82158       65.63038
H         29.35719       64.79809       65.17280
H         28.18195       63.72956       64.30888
N         29.03658       63.47394       67.57944
C         29.30828       62.52250       68.64997
C         28.04978       61.72291       68.96195
O         27.06060       62.31577       69.37165
C         29.77706       63.31977       69.87853
C         30.21080       62.51613       71.05348
O         30.25246       61.29581       71.03304
O         30.56517       63.18630       72.15835
H         29.12110       64.48490       67.77535
H         30.13380       61.85106       68.32350
H         28.95249       63.99032       70.20628
H         30.64480       63.95290       69.59062
N         27.99305       60.38016       68.72580
C         26.75060       59.62421       68.87222
C         26.32299       59.41754       70.32025
O         25.13268       59.24306       70.54121
C         26.79928       58.25823       68.14893
C         27.01163       58.41536       66.63091
C         26.77579       57.09173       65.88995
C         26.86374       57.29043       64.36947
N         26.50915       56.06356       63.65618
H         28.82285       59.91678       68.32769
H         25.94460       60.20032       68.36314
H         25.81154       57.76930       68.30135
H         27.57596       57.59533       68.58647
H         28.03151       58.80153       66.41418
H         26.26864       59.14850       66.24849
H         25.75295       56.73022       66.13357
H         27.51148       56.32522       66.21847
H         27.89213       57.60319       64.09221
H         26.16095       58.09569       64.05904
H         27.15876       55.28784       63.91889
H         25.52423       55.79248       63.88361
H         26.57706       56.23395       62.62662
N         27.22894       59.30505       71.33462
C         26.86000       58.97419       72.71299
C         27.37679       59.98333       73.73248
O         27.20075       59.74693       74.92044
C         27.28851       57.52860       73.05835
C         28.75915       57.21601       73.04724
O         29.68387       58.12511       72.69851
O         29.12020       56.08365       73.32356
H         28.22276       59.40767       71.11021
H         25.75363       58.96519       72.82463
H         26.79233       56.84146       72.33831
H         26.90241       57.28382       74.07196
N         27.96015       61.15813       73.35992
C         28.37032       62.16750       74.32239
C         29.62406       61.83285       75.11061
O         29.97680       62.64557       75.95436
H         28.02385       61.40138       72.36309
H         27.52581       62.36642       75.01840
H         28.57353       63.11696       73.78406
N         30.37087       60.70230       74.90635
C         31.58052       60.43099       75.69079
C         32.67330       61.47169       75.45254
O         33.60899       61.54379       76.23601
C         32.12583       59.00508       75.44727
C         32.81838       58.81891       74.11411
N         34.10156       58.38730       74.06625
O         32.22162       59.04485       73.07362
H         30.06493       60.01842       74.20559
H         31.26592       60.47777       76.75690
H         31.28792       58.28020       75.53387
H         32.85166       58.76923       76.25496
H         34.62715       58.18242       74.92850
H         34.57333       58.24316       73.16296
N         32.62057       62.28553       74.36143
C         33.56237       63.34292       74.05654
C         34.30875       63.10052       72.76401
O         35.08760       63.97207       72.40178
H         31.86637       62.14572       73.69042
H         34.31410       63.46262       74.86644
H         32.99673       64.29554       73.97204
N         34.20441       61.92939       72.05682
C         35.07908       61.62731       70.93043
C         34.32403       61.19558       69.68921
O         33.18087       60.76626       69.76805
C         36.09083       60.52424       71.31982
C         36.96131       60.94803       72.48409
C         36.43440       61.07349       73.78453
C         38.31735       61.24071       72.27127
C         37.23645       61.51666       74.83716
C         39.11975       61.68249       73.32664
C         38.57880       61.83045       74.61191
O         39.33702       62.27377       75.63408
H         33.57839       61.18160       72.38479
H         35.66729       62.52978       70.65397
H         36.73181       60.32872       70.43230
H         35.57601       59.57237       71.56416
H         35.40084       60.83780       73.99264
H         38.75046       61.14706       71.28350
H         36.80976       61.62300       75.82710
H         40.15916       61.91847       73.14073
H         40.26606       62.51703       75.51582
N         34.95711       61.29008       68.48592
C         34.41788       60.84651       67.20840
C         35.43339       59.88682       66.60512
O         36.57916       60.27656       66.42032
C         34.15901       62.07548       66.28333
C         33.08823       62.99611       66.93202
C         33.70674       61.62781       64.87591
C         32.84069       64.30232       66.17631
H         35.89785       61.71575       68.46993
H         33.44444       60.32834       67.34296
H         35.11106       62.64138       66.17637
H         33.41704       63.28084       67.95344
H         32.12619       62.44561       67.02119
H         33.59123       62.49435       64.19528
H         34.46338       60.96814       64.40452
H         32.73949       61.08788       64.92674
H         33.78397       64.88298       66.09902
H         32.43056       64.12099       65.16300
H         32.09431       64.90881       66.73228
N         35.07369       58.62461       66.24468
C         35.98830       57.67167       65.62994
C         35.78530       57.64892       64.12650
O         34.92759       58.36014       63.62270
C         35.77650       56.27898       66.25680
O         34.47910       55.80826       65.98701
H         34.09371       58.34345       66.34858
H         37.04203       57.97841       65.80748
H         35.96288       56.34298       67.35503
H         36.50277       55.54486       65.85091
H         34.03108       55.63651       66.85589
N         36.56490       56.85566       63.33928
C         36.40993       56.76559       61.88988
C         35.01413       56.30316       61.52975
O         34.42114       56.86148       60.61825
C         37.44361       55.80612       61.29804
H         37.29209       56.28157       63.79316
H         36.59483       57.76428       61.43285
H         37.33733       55.77277       60.19208
H         38.46746       56.16614       61.53637
H         37.31437       54.78193       61.70679
N         34.40594       55.32195       62.25360
C         33.02300       54.91394       62.04274
C         32.07966       56.09176       62.22384
O         31.30055       56.37189       61.32347
C         32.64606       53.80170       63.03176
H         34.93896       54.87756       63.01769
H         32.91154       54.50166       61.01525
H         33.31217       52.92472       62.88772
H         32.74593       54.14906       64.08298
H         31.59718       53.47660       62.86312
N         32.09740       56.82610       63.37384
C         31.16859       57.92743       63.63542
C         31.36190       59.11357       62.69421
O         30.53953       60.01906       62.72947
C         31.29585       58.42030       65.09442
C         31.01556       57.29995       66.10817
C         31.16057       57.76310       67.52346
O         32.22719       58.17049       67.95054
O         30.11478       57.65379       68.34982
H         32.78013       56.56036       64.09651
H         30.13928       57.53667       63.49258
H         30.57396       59.24746       65.27741
H         32.31456       58.82073       65.23937
H         31.70829       56.44750       65.97603
H         29.98014       56.92934       65.95191
N         32.41773       59.19681       61.83864
C         32.59806       60.30362       60.92699
H         33.52976       60.15670       60.33851
H         31.74104       60.35465       60.22271
H         32.68029       61.25527       61.49239
H         33.13037       58.46386       61.83020
Ca        30.23083       58.17742       70.52178
O         34.09735       57.30455       70.44700
H         34.93485       57.60297       70.01158
H         34.38410       56.58380       71.06215
O         29.89544       55.23566       70.14333
H         29.90021       55.11041       69.16116
H         28.94938       55.42820       70.36378
O         32.42349       55.74427       72.68479
H         31.72360       56.41595       72.87451
H         32.25929       55.02526       73.34424

Ca 1.0



