%chk=holoCaM.loop3.water3.frame456.chk
%nprocshared=20
%mem=10GB
%nosave
#b3lyp/svp scf=(tight,noincore,xqc) Test 
#IOP(5/87=12) Density=Current Pop=(MK,readradii) iop(6/33=2) iop(6/42=6)

holoCaM.loop3.water3.frame456 

   0  1 
C         15.06145       65.45033       71.93024
C         14.73301       65.08024       73.34483
O         13.88722       64.22219       73.55723
H         16.13500       65.24459       71.73339
H         14.45020       64.85672       71.21689
H         14.85845       66.52888       71.76789
N         15.39140       65.67803       74.37668
C         15.15175       65.31268       75.76586
C         13.73276       65.68409       76.17449
O         13.37169       66.84972       76.08613
C         16.19586       65.97095       76.69006
C         16.17236       65.38984       78.07916
O         15.28939       64.43162       78.41213
O         17.00001       65.74543       78.89523
H         16.11888       66.37646       74.15559
H         15.31017       64.21637       75.84086
H         16.05793       67.07386       76.72122
H         17.20730       65.75809       76.27828
N         12.86464       64.72298       76.60275
C         11.45461       64.98498       76.89336
C         11.21976       65.93471       78.05965
O         10.10073       66.41522       78.17695
C         10.70433       63.66614       77.17231
C         10.64361       62.77031       75.92797
C          9.93985       61.44611       76.23794
C          9.78010       60.61372       74.96125
N          9.18251       59.31229       75.25248
H         13.21191       63.75526       76.66326
H         11.01180       65.46409       75.99137
H          9.65614       63.88672       77.47235
H         11.20333       63.13602       78.01477
H         11.66284       62.54710       75.54703
H         10.08542       63.31332       75.13453
H          8.93295       61.64037       76.66677
H         10.54108       60.88333       76.98585
H         10.76886       60.46325       74.48669
H          9.13747       61.16566       74.24006
H          8.24098       59.43818       75.68965
H          9.07547       58.77921       74.35945
H          9.80361       58.77008       75.89656
N         12.18660       66.23322       78.97166
C         11.98218       67.17740       80.06874
C         12.96520       68.33483       79.97519
O         12.52282       69.47266       80.05964
C         11.95378       66.49155       81.45964
C         13.14346       65.69177       81.90115
O         13.14341       65.14529       83.13152
O         14.09235       65.50302       81.16838
H         13.09729       65.76598       78.88991
H         10.96830       67.63418       80.00744
H         11.08256       65.80150       81.48914
H         11.77972       67.28405       82.22045
N         14.29834       68.13532       79.76085
C         15.26933       69.21194       79.66262
C         16.38688       69.08599       80.68000
O         17.25951       69.94189       80.67029
H         14.65418       67.18399       79.61979
H         14.78910       70.20428       79.80225
H         15.71489       69.19050       78.64506
N         16.43832       68.06858       81.59416
C         17.48622       67.97176       82.60957
C         18.88535       67.77790       82.02803
O         19.84131       67.88622       82.78485
C         17.16101       66.85743       83.63556
C         17.28659       65.45348       83.08242
N         18.10354       64.55006       83.67154
O         16.63728       65.12124       82.10574
H         15.68109       67.37802       81.61572
H         17.46872       68.93708       83.16234
H         16.12304       67.00712       84.00602
H         17.84050       66.96411       84.50781
H         18.65538       64.79648       84.50546
H         18.17406       63.59164       83.30021
N         19.08734       67.46741       80.71351
C         20.39682       67.32655       80.10164
C         20.71382       65.90902       79.66172
O         21.77162       65.72931       79.07947
H         18.27996       67.32996       80.09712
H         21.20479       67.63453       80.80024
H         20.43950       68.00713       79.22411
N         19.90611       64.84467       79.96470
C         20.28938       63.45855       79.69650
C         19.23761       62.71382       78.89076
O         18.06102       62.78955       79.19945
C         20.57073       62.72486       81.01767
C         21.78568       63.32365       81.68833
C         21.68032       64.47352       82.48924
C         23.05139       62.75263       81.47236
C         22.82306       65.03855       83.06575
C         24.19204       63.32381       82.04075
C         24.08187       64.46970       82.84037
O         25.17640       65.03355       83.38996
H         19.03636       64.99954       80.49178
H         21.24386       63.40874       79.12727
H         20.79741       61.66524       80.76339
H         19.69632       62.71041       81.70047
H         20.71689       64.93388       82.66496
H         23.15856       61.87622       80.84506
H         22.73127       65.92432       83.68163
H         25.16082       62.87837       81.85215
H         26.06488       64.67628       83.24745
N         19.64060       61.90363       77.86764
C         18.75605       61.12548       77.00639
C         18.98869       59.63644       77.23797
O         20.12063       59.18194       77.19252
C         19.01883       61.53611       75.52121
C         18.47018       62.97230       75.30478
C         18.39324       60.55127       74.51393
C         18.63758       63.51424       73.88547
H         20.65110       61.81695       77.68463
H         17.68798       61.32787       77.23039
H         20.11512       61.51102       75.33144
H         18.98732       63.66728       76.00006
H         17.38455       62.98923       75.54444
H         18.67140       60.81313       73.47406
H         18.78293       59.52428       74.66631
H         17.29608       60.55405       74.59576
H         19.70792       63.51646       73.59482
H         18.05076       62.91828       73.15610
H         18.24532       64.55187       73.84358
N         17.90775       58.81040       77.38385
C         17.98863       57.35316       77.45986
C         17.57744       56.76072       76.12061
O         17.22399       57.50658       75.22987
C         17.07385       56.84640       78.58992
O         15.73664       57.18640       78.31731
H         16.96859       59.22230       77.32019
H         19.03281       57.03233       77.65935
H         17.41236       57.30165       79.54975
H         17.14676       55.74212       78.68820
H         15.30704       57.42378       79.17957
N         17.62863       55.41667       75.89514
C         17.25265       54.82264       74.61078
C         15.78924       55.06576       74.28488
O         15.48625       55.37850       73.14036
C         17.54137       53.32115       74.60431
H         17.96265       54.80267       76.65119
H         17.88407       55.26026       73.80425
H         16.94670       52.79528       75.37903
H         17.29784       52.89728       73.60511
H         18.62328       53.15039       74.79267
N         14.83156       54.98370       75.25317
C         13.41325       55.25220       75.01818
C         13.22172       56.61278       74.38289
O         12.57959       56.71195       73.34772
C         12.63910       55.20337       76.34285
H         15.13547       54.76126       76.21493
H         12.99325       54.47377       74.34356
H         12.74570       54.20333       76.81211
H         13.01966       55.96922       77.05421
H         11.55942       55.39610       76.16343
N         13.80719       57.70132       74.94560
C         13.73091       59.04768       74.39235
C         14.22916       59.06513       72.95465
O         13.48210       59.48043       72.07879
C         14.53973       60.00717       75.28401
C         13.90068       60.17102       76.67510
C         14.78048       60.97890       77.57490
O         15.12739       62.09619       77.24367
O         15.20238       60.47077       78.74886
H         14.37033       57.54525       75.79471
H         12.67925       59.38988       74.38789
H         14.60598       61.01128       74.80754
H         15.55751       59.59193       75.39890
H         13.72898       59.18934       77.16176
H         12.92157       60.67898       76.56534
N         15.45854       58.58775       72.62684
C         15.93171       58.52498       71.26196
H         16.94148       58.06146       71.23411
H         15.24416       57.89901       70.65304
H         15.99157       59.54516       70.82992
H         16.06925       58.22410       73.36168
Ca        15.42797       63.22478       80.31036
O         14.56669       61.92985       83.13097
H         15.23947       62.05076       83.84695
H         14.39580       62.84581       82.79882
O         12.74915       61.87062       80.23770
H         12.29744       61.27109       79.59214
H         12.01209       62.32210       80.72032
O         17.09713       61.02885       81.48982
H         17.49795       60.25003       81.02864
H         17.67239       61.17604       82.28180

Ca 1.0



