%chk=holoCaM-CaMKII.loop3.water2.frame344.chk
%nprocshared=20
%mem=10GB
%nosave
#b3lyp/svp scf=(tight,noincore,xqc) Test 
#IOP(5/87=12) Density=Current Pop=(MK,readradii) iop(6/33=2) iop(6/42=6)

holoCaM-CaMKII.loop3.water2.frame344 

   0  1 
C         12.73266       63.35633       54.41544
C         11.92386       63.45354       53.15652
O         11.67943       64.55594       52.68747
H         13.72864       63.81723       54.25292
H         12.20666       63.88541       55.23609
H         12.88199       62.29761       54.71858
N         11.47828       62.32418       52.54555
C         10.70387       62.33544       51.31404
C          9.38042       63.04115       51.53040
O          8.65588       62.68137       52.44799
C         10.49802       60.89082       50.83365
C          9.97414       60.78744       49.43365
O          9.66937       61.87661       48.70365
O          9.92984       59.68894       48.90284
H         11.72103       61.41348       52.96691
H         11.29702       62.85480       50.53228
H          9.85498       60.33092       51.54250
H         11.49745       60.40222       50.80758
N          9.00162       64.05444       50.70158
C          7.76369       64.81427       50.85491
C          6.56524       63.88515       50.95190
O          5.78359       64.02980       51.88131
C          7.63146       65.82848       49.69442
C          6.49246       66.83956       49.90151
C          6.52045       67.92607       48.81394
C          5.47375       69.01657       49.08214
N          5.55190       70.07746       48.07689
H          9.62506       64.28925       49.91348
H          7.83271       65.40009       51.79879
H          7.51009       65.29795       48.72480
H          8.57668       66.41334       49.65847
H          6.63853       67.33180       50.88792
H          5.50854       66.32246       49.90074
H          6.34087       67.46755       47.81696
H          7.52317       68.40612       48.80971
H          5.65562       69.46080       50.08654
H          4.45481       68.57088       49.07404
H          4.84113       70.81217       48.29743
H          6.50143       70.51707       48.08989
H          5.35654       69.68988       47.12560
N          6.41294       62.85386       50.07550
C          5.32931       61.87968       50.15184
C          5.84443       60.50407       50.59280
O          5.30741       59.99502       51.56786
C          4.48934       61.89922       48.85444
C          5.27115       61.89548       47.57121
O          5.19259       62.84496       46.80784
O          6.04281       60.85656       47.23978
H          7.12425       62.72986       49.33955
H          4.59819       62.16448       50.94304
H          3.90718       62.84739       48.86255
H          3.75842       61.06171       48.86530
N          6.89054       59.86191       49.99201
C          7.40507       58.56538       50.45327
C          7.41976       57.48517       49.38211
O          7.78007       56.36055       49.69935
H          7.37123       60.32902       49.21494
H          6.80379       58.17953       51.30404
H          8.43999       58.69048       50.82353
N          7.01946       57.73730       48.10634
C          6.86623       56.72109       47.06734
C          8.14445       56.01157       46.62321
O          8.01157       55.06660       45.85740
C          6.14892       57.34226       45.84600
C          6.99326       58.35060       45.09260
N          7.15428       58.24696       43.75723
O          7.51832       59.28245       45.68044
H          6.70424       58.68296       47.88909
H          6.18468       55.94822       47.48819
H          5.22867       57.84958       46.20982
H          5.82389       56.53688       45.15291
H          6.71418       57.48356       43.22437
H          7.70070       58.95962       43.25396
N          9.39537       56.37667       47.03540
C         10.59264       55.62998       46.65483
C         11.64208       56.44249       45.91995
O         12.69317       55.88040       45.64596
H          9.51203       57.17985       47.66949
H         10.34786       54.75229       46.02063
H         11.05733       55.24306       47.58767
N         11.47661       57.76014       45.60793
C         12.56577       58.57237       45.06046
C         12.26127       60.06874       45.26411
O         11.88060       60.24067       46.58602
C         12.90005       58.24995       43.58554
C         11.78627       58.56340       42.61153
C         11.92826       59.62308       41.69654
C         10.61324       57.79120       42.58266
C         10.91097       59.91295       40.78239
C          9.60664       58.07227       41.65359
C          9.74492       59.13675       40.75854
O          8.75403       59.40278       39.88339
H         10.59657       58.22644       45.87310
H         13.46991       58.36509       45.67764
H         13.19727       57.18736       43.46501
H         13.79532       58.85407       43.32153
H         12.82321       60.23263       41.69371
H         10.48063       56.96164       43.26411
H         11.03158       60.73831       40.09192
H          8.71259       57.46299       41.63167
H          8.80566       60.13615       39.25378
N         13.42041       60.93500       44.95180
C         13.27329       62.31968       45.46647
C         13.89906       63.30032       44.49294
O         14.85421       62.94815       43.81449
C         13.82630       62.49898       46.93451
C         13.27621       63.79810       47.57813
C         15.36794       62.44262       46.99622
C         13.66214       63.97958       49.04854
H         14.31973       60.50767       45.26525
H         12.18412       62.54557       45.46797
H         13.44428       61.67160       47.56350
H         12.16540       63.75163       47.53800
H         13.61828       64.69283       47.02285
H         15.76128       61.50007       46.57024
H         15.81575       63.29842       46.44901
H         15.72393       62.47426       48.04555
H         14.75145       64.14869       49.16222
H         13.14016       64.86971       49.45982
H         13.37129       63.08819       49.64013
N         13.38717       64.55658       44.36951
C         13.91350       65.56883       43.46250
C         14.37859       66.78666       44.24528
O         14.30058       66.78499       45.46269
C         12.82325       65.93570       42.44065
O         11.70255       66.49874       43.07242
H         12.57130       64.81280       44.94376
H         14.78791       65.17918       42.89737
H         12.53747       65.02867       41.85726
H         13.20740       66.66278       41.69627
H         11.04956       65.76514       43.21643
N         14.88864       67.87166       43.60009
C         15.33518       69.07902       44.29029
C         14.20011       69.73224       45.06052
O         14.36006       69.99381       46.24460
C         15.90437       70.08098       43.27961
H         14.96513       67.83589       42.57242
H         16.15920       68.82024       44.99309
H         15.13346       70.38098       42.53815
H         16.26955       70.98867       43.80646
H         16.76045       69.62449       42.73847
N         13.01816       70.01505       44.44283
C         11.89445       70.68387       45.09528
C         11.46938       69.97491       46.36515
O         11.39285       70.61886       47.40241
C         10.70228       70.76697       44.13383
H         12.91444       69.73491       43.45482
H         12.19157       71.72524       45.35290
H         10.36146       69.75101       43.83841
H          9.85600       71.30087       44.61721
H         10.99002       71.32517       43.21784
N         11.19691       68.64157       46.35859
C         10.77934       67.90242       47.54778
C         11.79236       68.07034       48.66733
O         11.41751       68.52989       49.73776
C         10.57729       66.40950       47.21319
C          9.39899       66.19676       46.24596
C          9.20173       64.74353       45.93295
O          8.04729       64.13143       46.25741
O         10.07566       64.11544       45.35981
H         11.31670       68.13474       45.46887
H          9.80662       68.30469       47.90860
H         10.35842       65.85221       48.14879
H         11.51216       66.00120       46.77692
H          9.56275       66.73534       45.29013
H          8.47421       66.59610       46.71363
N         13.10100       67.75652       48.48229
C         14.09762       67.95675       49.51104
H         15.09963       67.66913       49.12737
H         14.12846       69.02848       49.80460
H         13.85957       67.33460       50.39888
H         13.40517       67.38931       47.57503
Ca         9.92611       61.37741       46.56042
O          6.35568       61.68479       44.11257
H          6.40563       61.44467       43.15365
H          5.64148       61.10229       44.47428
O          9.49506       61.65756       43.32557
H          8.92539       61.52994       42.52586
H          9.68901       60.73923       43.64056

Ca 1.0



