%chk=holoCaM-CaMKII.loop4.water1.frame399.chk
%nprocshared=20
%mem=10GB
%nosave
#b3lyp/svp scf=(tight,noincore,xqc) Test 
#IOP(5/87=12) Density=Current Pop=(MK,readradii) iop(6/33=2) iop(6/42=6)

holoCaM-CaMKII.loop4.water1.frame399 

   -3  1 
C         38.78807       86.18133       74.47492
C         38.38760       87.17463       75.52370
O         38.82992       88.31202       75.45097
H         39.88918       86.04604       74.48884
H         38.30368       85.19680       74.64392
H         38.47851       86.55834       73.47711
N         37.54949       86.81192       76.53605
C         37.07491       87.73656       77.55334
C         37.58893       87.30610       78.91704
O         37.32443       86.19387       79.35163
C         35.54199       87.77801       77.51732
C         34.95506       88.77867       78.46629
O         33.74541       88.87462       78.54514
O         35.73515       89.57416       79.22298
H         37.21891       85.83573       76.58398
H         37.43599       88.76668       77.33244
H         35.13973       86.77132       77.76214
H         35.20896       88.05330       76.49275
N         38.35422       88.16718       79.63664
C         38.99873       87.84710       80.90219
C         38.05914       88.10566       82.07842
O         37.96037       87.23561       82.93251
C         40.35849       88.61347       81.00007
C         41.26704       88.19012       79.80346
C         41.05549       88.32951       82.34439
C         42.62090       88.89698       79.73594
H         38.56420       89.08087       79.21420
H         39.27887       86.76823       80.92001
H         40.16740       89.70696       80.94426
H         40.75096       88.41548       78.84612
H         41.44751       87.09302       79.83969
H         41.28081       87.24703       82.44947
H         41.99791       88.90637       82.43407
H         40.41565       88.64968       83.19238
H         43.25590       88.64378       80.60779
H         43.15992       88.56020       78.82401
H         42.48455       89.99503       79.67924
N         37.32771       89.25620       82.18827
C         36.49392       89.56791       83.35702
C         34.99421       89.34700       83.13515
O         34.22594       89.63509       84.04298
C         36.81938       90.98524       83.88552
C         36.44978       92.12900       82.97671
O         36.68932       93.38938       83.38535
O         35.92866       91.94127       81.88942
H         37.36443       89.93326       81.41355
H         36.75214       88.87965       84.19153
H         37.90946       91.04326       84.09647
H         36.28190       91.13904       84.84637
N         34.51082       88.74321       82.01214
C         33.11733       88.34129       81.84493
C         32.10532       89.45560       81.62697
O         30.94105       89.12424       81.45133
H         35.17419       88.42993       81.29370
H         32.81109       87.72911       82.72109
H         33.05503       87.68673       80.94891
N         32.44047       90.77679       81.60114
C         31.45709       91.84157       81.35660
C         30.77406       91.76406       79.98017
O         29.76917       92.44117       79.81099
C         32.09463       93.24848       81.53222
C         33.27785       93.47037       80.61863
O         33.84765       94.54825       80.57941
O         33.71638       92.44252       79.87387
H         33.41701       91.03352       81.78988
H         30.65660       91.73042       82.12224
H         32.43733       93.37421       82.58083
H         31.31953       94.02014       81.32873
N         31.25464       90.99922       78.95397
C         30.58183       90.85764       77.66578
C         31.36804       91.38178       76.47216
O         30.85770       91.24592       75.36879
H         32.12311       90.47650       79.09093
H         29.60321       91.38372       77.66325
H         30.37424       89.77740       77.50566
N         32.57734       92.00999       76.58562
C         33.25562       92.62407       75.43897
C         34.79809       92.63672       75.59029
O         35.25256       91.45196       76.16970
C         32.66434       94.03795       75.20877
C         32.65844       94.98776       76.43426
C         34.00432       95.51783       76.87697
N         34.26354       96.84534       76.83493
O         34.85333       94.76202       77.31767
H         32.95965       92.16570       77.52169
H         33.06099       92.00055       74.53706
H         31.59565       93.88468       74.94368
H         33.13518       94.54130       74.33997
H         32.16114       94.49772       77.29869
H         32.02552       95.85629       76.15363
H         33.56353       97.51600       76.48787
H         35.16794       97.20908       77.16351
N         35.48295       92.87771       74.30254
C         36.95505       92.69614       74.36203
C         37.68819       94.01325       74.10142
O         37.65805       94.51742       72.98762
C         37.37442       91.57487       73.36447
C         38.89022       91.32129       73.37296
C         36.65418       90.25206       73.68717
H         35.22040       93.81081       73.91256
H         37.26215       92.35084       75.37146
H         37.08242       91.88326       72.33640
H         39.22491       90.98522       74.37502
H         39.14993       90.53124       72.63567
H         39.44680       92.23544       73.08706
H         36.94807       89.46108       72.96439
H         36.91160       89.90705       74.71093
H         35.55265       90.37042       73.62255
N         38.35896       94.62597       75.11918
C         39.14484       95.85339       74.98608
C         40.42355       95.59633       74.21192
O         40.65806       94.47359       73.79776
C         39.52395       96.36808       76.39510
C         38.29582       96.75460       77.17275
N         37.95690       96.09521       78.30257
O         37.60068       97.67673       76.77484
H         38.29179       94.20360       76.05220
H         38.54402       96.63503       74.47022
H         40.17133       97.26752       76.34338
H         40.09548       95.57449       76.92677
H         38.53333       95.31311       78.64169
H         37.11268       96.35965       78.83150
N         41.31999       96.59947       73.99655
C         42.60814       96.38051       73.35127
C         43.48881       95.46882       74.19557
O         43.96034       94.46750       73.67689
C         43.32739       97.72390       73.10146
C         44.63694       97.52717       72.36815
C         44.65790       96.93454       71.09215
C         45.84911       97.92842       72.95433
C         45.86763       96.73789       70.42198
C         47.05869       97.73455       72.27903
C         47.07122       97.13559       71.01074
O         48.22962       96.93789       70.34989
H         41.07935       97.55345       74.30724
H         42.42593       95.91248       72.35909
H         43.49659       98.23846       74.07324
H         42.67530       98.37838       72.48338
H         43.73976       96.61913       70.61384
H         45.86057       98.38855       73.93446
H         45.86817       96.27441       69.44328
H         47.98513       98.04792       72.74325
H         49.08487       97.19756       70.72075
N         43.75772       95.76268       75.50405
C         44.63904       94.94815       76.34205
C         44.21212       93.49315       76.35760
O         45.05712       92.62890       76.16703
C         44.77788       95.51633       77.77855
C         43.50190       95.47369       78.64433
C         43.71782       96.03276       80.02880
O         42.69397       96.04113       80.90318
O         44.80462       96.46924       80.37740
H         43.32230       96.60210       75.91471
H         45.66361       94.99555       75.90851
H         45.13320       96.56772       77.70354
H         45.56486       94.92854       78.30292
H         43.17146       94.42239       78.77053
H         42.69174       96.05310       78.15511
N         42.90330       93.15394       76.52069
C         42.42906       91.77410       76.50314
C         42.81356       91.11543       75.18657
O         43.47924       90.08957       75.20602
C         40.90225       91.70647       76.75352
C         40.53065       92.28606       78.13529
C         39.08253       92.09471       78.47754
O         38.74051       91.46285       79.61314
O         38.20802       92.54873       77.76367
H         42.21940       93.91745       76.62643
H         42.91573       91.20977       77.33013
H         40.59249       90.63822       76.72042
H         40.35433       92.26233       75.96167
H         40.74580       93.37279       78.16763
H         41.13762       91.78998       78.92016
N         42.48771       91.69474       74.00119
C         42.91427       91.16646       72.72411
H         44.02426       91.11431       72.68849
H         42.48486       90.15690       72.56284
H         42.57450       91.83886       71.90628
H         41.95645       92.56841       74.00657
Ca        35.28121       92.13410       78.32068
O         37.76235       94.06099       80.75822
H         37.22183       94.84684       81.02338
H         38.69956       94.33307       80.92576

Ca 1.0



