%chk=holoCaM.loop4.water3.frame376.chk
%nprocshared=20
%mem=10GB
%nosave
#b3lyp/svp scf=(tight,noincore,xqc) Test 
#IOP(5/87=12) Density=Current Pop=(MK,readradii) iop(6/33=2) iop(6/42=6)

holoCaM.loop4.water3.frame376 

   -3  1 
C         12.42028       85.04977       57.58836
C         12.76749       83.59610       57.50779
O         12.08922       82.88230       56.78320
H         11.38815       85.16896       57.97775
H         13.12625       85.60026       58.24289
H         12.47341       85.48557       56.56712
N         13.81153       83.07636       58.21758
C         14.22765       81.68491       58.08194
C         15.28705       81.33518       59.12798
O         16.32241       81.98999       59.16031
C         14.80768       81.46762       56.65912
C         15.03154       80.02770       56.31197
O         15.59387       79.73906       55.26884
O         14.55194       79.04990       57.09674
H         14.32640       83.69539       58.86340
H         13.33218       81.03992       58.23016
H         15.76509       82.02655       56.57841
H         14.12805       81.85976       55.87626
N         15.10347       80.29711       59.99801
C         16.07941       79.88909       61.01421
C         16.68274       78.51092       60.71344
O         17.58683       78.10179       61.41997
C         15.39955       79.91421       62.43328
C         16.37136       79.75367       63.63311
C         14.30504       78.82991       62.56800
C         17.42490       80.85500       63.72117
H         14.23150       79.76072       59.91272
H         16.91906       80.61216       60.99951
H         14.91008       80.90638       62.55155
H         16.87043       78.76335       63.62552
H         15.77607       79.80453       64.57211
H         13.81053       78.89591       63.56039
H         13.50968       78.94720       61.81255
H         14.73948       77.81089       62.47203
H         16.93356       81.84981       63.77019
H         18.02640       80.71136       64.64353
H         18.11787       80.82191       62.85778
N         16.18964       77.72282       59.71107
C         16.59606       76.33435       59.50153
C         17.07404       76.02886       58.08668
O         17.51874       74.90638       57.87017
C         15.41294       75.42043       59.90432
C         14.10955       75.64335       59.15700
O         14.01222       76.53586       58.14419
O         13.12750       75.00077       59.48659
H         15.42609       78.08072       59.14289
H         17.44576       76.08301       60.17214
H         15.21089       75.60358       60.98225
H         15.71245       74.35534       59.79483
N         17.01687       76.93520       57.07090
C         17.47143       76.65556       55.71599
C         16.73137       75.53742       54.99045
O         17.13123       75.24967       53.87045
H         16.67519       77.88493       57.25725
H         18.54997       76.38643       55.75873
H         17.38019       77.57807       55.10313
N         15.69891       74.82593       55.54161
C         15.14635       73.64247       54.88112
C         14.34315       73.96096       53.62823
O         13.99653       73.03091       52.91284
C         14.32364       72.77226       55.86256
C         12.98496       73.34177       56.23302
O         12.89957       74.42776       56.76921
O         11.86470       72.63996       55.98228
H         15.37035       75.05556       56.48539
H         16.01805       73.01585       54.59037
H         14.92072       72.60714       56.78594
H         14.14204       71.78166       55.39491
N         13.95412       75.23285       53.32963
C         13.14444       75.56301       52.17103
C         11.68728       75.75341       52.52925
O         10.93379       76.12310       51.63974
H         14.17290       75.99940       53.98091
H         13.19394       74.76655       51.39715
H         13.55360       76.48875       51.71047
N         11.19841       75.47616       53.77932
C          9.78773       75.60612       54.12467
C          9.60881       76.53513       55.34967
O         10.53560       77.58237       55.30819
C          9.18911       74.21903       54.44283
C          9.36803       73.21517       53.29375
C          8.74240       71.88956       53.64788
N          9.49556       70.76858       53.74244
O          7.53900       71.82714       53.85255
H         11.82949       75.12856       54.51037
H          9.22910       76.03976       53.26509
H          8.10443       74.32026       54.65463
H          9.67770       73.81057       55.35234
H         10.45261       73.07584       53.09445
H          8.89078       73.60290       52.36800
H         10.51249       70.79641       53.57918
H          9.06006       69.86681       53.98745
N          8.24707       77.08814       55.34101
C          7.93664       78.04426       56.41752
C          7.28450       77.33967       57.59834
O          6.27985       76.66636       57.41047
C          7.00797       79.15229       55.84778
C          6.67643       80.21157       56.91321
C          7.67035       79.85127       54.64722
H          7.49798       76.36788       55.22972
H          8.85631       78.56476       56.75559
H          6.05625       78.69426       55.49772
H          6.12862       79.75596       57.76046
H          7.60504       80.68817       57.29554
H          6.02363       81.00114       56.48471
H          6.99909       80.63651       54.23946
H          8.62700       80.32672       54.94916
H          7.87635       79.12847       53.83019
N          7.75725       77.53681       58.86203
C          7.08480       77.03252       60.05435
C          6.26215       78.15946       60.65612
O          6.41314       79.29480       60.24754
C          8.14772       76.48606       61.03602
C          7.60722       75.92369       62.32552
N          6.79868       74.83991       62.32591
O          7.92864       76.43741       63.38688
H          8.54648       78.18403       58.99453
H          6.37297       76.22632       59.77107
H          8.85592       77.31182       61.27413
H          8.71817       75.67748       60.53978
H          6.52854       74.38173       61.44424
H          6.45279       74.45061       63.21480
N          5.30454       77.90133       61.58091
C          4.42748       78.92762       62.15146
C          5.19368       80.00532       62.90906
O          4.82975       81.16704       62.78566
C          3.28073       78.27933       62.96480
C          3.74501       77.21878       63.93701
C          3.50199       75.86508       63.63416
C          4.43900       77.54211       65.11168
C          3.96935       74.85536       64.47219
C          4.89921       76.52596       65.95753
C          4.67592       75.18153       65.63566
O          5.14846       74.21245       66.44437
H          5.16448       76.91760       61.84137
H          3.91065       79.45496       61.31603
H          2.63807       77.78116       62.20439
H          2.63990       79.03995       63.46068
H          2.97530       75.58628       62.72895
H          4.62725       78.57488       65.37175
H          3.79211       73.82055       64.20640
H          5.43974       76.78311       66.85887
H          5.03341       73.27330       66.23843
N          6.30570       79.71738       63.64115
C          7.12643       80.74560       64.28530
C          7.65457       81.72880       63.25478
O          7.48983       82.92774       63.43241
C          8.32806       80.10560       65.02280
C          7.95335       79.23431       66.23663
C          7.40847       80.03098       67.39507
O          6.34890       80.62887       67.30483
O          8.08763       80.06637       68.55791
H          6.60129       78.73275       63.70544
H          6.52062       81.31790       65.01558
H          9.01927       80.90047       65.38281
H          8.89113       79.47734       64.29715
H          8.88479       78.73730       66.58403
H          7.23613       78.43887       65.95095
N          8.28843       81.27555       62.14031
C          8.85167       82.14390       61.10755
C          7.78327       83.07267       60.54526
O          7.96089       84.28117       60.60641
C          9.47429       81.28934       59.97847
C         10.64820       80.41230       60.47438
C         11.14457       79.45321       59.42708
O         12.09800       78.55944       59.74108
O         10.66582       79.43842       58.30763
H          8.34970       80.25413       62.02364
H          9.66042       82.76751       61.55163
H          9.84695       81.95087       59.16473
H          8.68106       80.63456       59.55954
H         10.33347       79.78811       61.33227
H         11.48581       81.06166       60.81029
N          6.63603       82.57274       60.00928
C          5.55790       83.38250       59.48318
H          4.63367       83.17938       60.06562
H          5.77747       84.46836       59.53547
H          5.37639       83.10449       58.42376
H          6.50035       81.56151       59.98481
Ca        12.19413       77.11192       56.85595
O         11.52103       80.29418       55.72524
H         10.72342       80.70466       56.14255
H         11.28335       80.22820       54.76774
O         10.21377       75.60191       58.44789
H         10.58589       75.12397       59.23002
H         10.35294       74.97995       57.69161
O         13.09979       78.33031       54.14288
H         12.34675       78.34263       53.50155
H         13.81722       78.82872       53.68108

Ca 1.0



