%chk=holoCaM.loop4.water3.frame315.chk
%nprocshared=20
%mem=10GB
%nosave
#b3lyp/svp scf=(tight,noincore,xqc) Test 
#IOP(5/87=12) Density=Current Pop=(MK,readradii) iop(6/33=2) iop(6/42=6)

holoCaM.loop4.water3.frame315 

   -3  1 
C         17.84703       39.82238       88.05374
C         17.14393       41.09151       88.41310
O         15.98824       41.02658       88.80954
H         18.74422       39.70519       88.69622
H         17.17633       38.95086       88.22074
H         18.14643       39.84747       86.98700
N         17.77724       42.29668       88.29624
C         17.12646       43.54102       88.68393
C         17.96506       44.75884       88.29715
O         19.10157       44.84528       88.74284
C         16.87973       43.55045       90.22107
C         15.91397       44.62360       90.60976
O         15.59740       44.78086       91.77647
O         15.39228       45.39827       89.64716
H         18.73500       42.31892       87.91300
H         16.15333       43.58233       88.14519
H         17.84333       43.66909       90.76427
H         16.42092       42.60378       90.56296
N         17.45772       45.75233       87.49752
C         18.22681       46.94410       87.12303
C         17.64017       48.24758       87.68197
O         18.30430       49.26544       87.54037
C         18.41819       47.03004       85.57290
C         17.09158       47.32377       84.81651
C         19.09352       45.74581       85.05442
C         17.28888       47.57960       83.31723
H         16.49644       45.65860       87.14279
H         19.24338       46.87343       87.56756
H         19.10999       47.87984       85.37508
H         16.63371       48.24651       85.23256
H         16.37064       46.48987       84.94764
H         19.35279       45.82800       83.98003
H         20.04036       45.56211       85.60391
H         18.42539       44.86795       85.18907
H         16.31521       47.84530       82.85366
H         17.99329       48.42437       83.15818
H         17.67116       46.68075       82.79336
N         16.41158       48.31817       88.28396
C         15.81941       49.57265       88.76189
C         15.35740       49.54690       90.22911
O         14.90486       50.58281       90.69687
C         14.70769       50.02303       87.78108
C         13.64448       49.00152       87.45796
O         12.83207       48.51201       88.40822
O         13.50797       48.61953       86.30665
H         15.83469       47.47285       88.32971
H         16.57644       50.38689       88.73048
H         15.21188       50.28103       86.82307
H         14.22596       50.95083       88.15695
N         15.47383       48.44821       91.03296
C         15.13069       48.42961       92.45523
C         13.67343       48.69906       92.83450
O         13.40930       48.72549       94.02848
H         15.89764       47.59424       90.65237
H         15.76099       49.18557       92.96987
H         15.39928       47.43281       92.87029
N         12.68215       48.92714       91.92492
C         11.31234       49.28774       92.30208
C         10.59980       48.26095       93.18142
O          9.92890       48.67441       94.11678
C         10.44227       49.67024       91.07597
C         10.26892       48.63623       89.99401
O         10.93252       47.47095       90.01750
O          9.54766       48.88505       89.04191
H         12.91206       48.90157       90.92691
H         11.36106       50.22692       92.89905
H         10.88835       50.56645       90.59373
H          9.43370       49.95333       91.44989
N         10.68488       46.92389       92.94467
C          9.96328       45.91421       93.71212
C          9.10865       45.01347       92.83471
O          8.49606       44.10300       93.37721
H         11.30737       46.60142       92.19983
H          9.30975       46.37621       94.48337
H         10.70687       45.27615       94.23564
N          9.03338       45.17766       91.48116
C          8.29221       44.30768       90.58018
C          9.24829       43.62179       89.61542
O         10.44247       43.89732       89.64208
C          7.28228       45.13433       89.75482
C          6.28436       45.92585       90.60535
C          5.29057       46.61970       89.70553
N          5.20766       47.96964       89.66426
O          4.55342       45.94954       88.99691
H          9.54024       45.94516       91.03956
H          7.75116       43.52188       91.15237
H          6.71351       44.44658       89.09386
H          7.83771       45.85406       89.11032
H          6.83785       46.67018       91.21847
H          5.73454       45.24496       91.28936
H          5.82326       48.55803       90.24351
H          4.52886       48.42945       89.03878
N          8.77363       42.71491       88.71802
C          9.58990       42.04221       87.71636
C          9.04876       42.38629       86.33395
O          7.86075       42.22251       86.08741
C          9.59972       40.51202       87.97759
C         10.39842       39.76068       86.89816
C         10.22661       40.20678       89.34956
H          7.76900       42.47835       88.74194
H         10.64933       42.37773       87.77499
H          8.55558       40.12960       87.96800
H         11.45097       40.11373       86.87086
H         10.39789       38.66965       87.10458
H          9.94224       39.90692       85.89921
H         10.22422       39.11281       89.54099
H         11.27888       40.56398       89.38480
H          9.65898       40.69792       90.16662
N          9.90036       42.82027       85.36568
C          9.52012       43.14707       83.99220
C          9.85869       41.96447       83.08621
O         10.38758       40.98196       83.57666
C         10.28822       44.45007       83.62254
C         10.16125       44.94497       82.20360
N          8.96441       45.29744       81.68389
O         11.16714       45.04627       81.51650
H         10.90608       42.84681       85.59292
H          8.42292       43.31002       83.91297
H         11.37208       44.27861       83.81655
H          9.95293       45.26285       84.30261
H          8.10410       45.22700       82.24399
H          8.90250       45.63418       80.71094
N          9.56956       41.97188       81.75343
C          9.99071       40.91620       80.82911
C         11.50115       40.76957       80.86028
O         11.99502       39.66284       81.02537
C          9.61575       41.28884       79.37497
C          8.15371       41.17043       79.03649
C          7.57209       39.90051       78.87877
C          7.37901       42.31576       78.79573
C          6.24110       39.77991       78.46721
C          6.04376       42.19302       78.39933
C          5.47349       40.92350       78.22301
O          4.19673       40.79105       77.81020
H          9.06914       42.78112       81.36485
H          9.52600       39.94016       81.09723
H         10.14933       40.62495       78.65797
H          9.97734       42.32094       79.17277
H          8.15928       39.00416       79.03856
H          7.80951       43.30287       78.90805
H          5.81096       38.79645       78.32218
H          5.45871       43.08483       78.21459
H          3.63896       41.55620       77.60946
N         12.29115       41.86472       80.67198
C         13.74686       41.81650       80.54396
C         14.46583       41.34739       81.81003
O         15.67982       41.20273       81.76875
C         14.30366       43.20557       80.13841
C         13.65898       43.81998       78.87704
C         13.74498       42.91293       77.68390
O         12.72522       42.53079       77.13124
O         14.94396       42.51962       77.21563
H         11.81267       42.76588       80.56304
H         13.98489       41.09906       79.72779
H         15.39666       43.10669       79.95817
H         14.15737       43.92031       80.97832
H         14.17309       44.77591       78.64420
H         12.59538       44.07324       79.06550
N         13.78985       41.07142       82.95798
C         14.39892       40.58979       84.18809
C         14.04072       39.12285       84.35039
O         14.94157       38.30792       84.49410
C         13.90332       41.45241       85.36695
C         14.35815       42.91974       85.22049
C         13.79769       43.83234       86.27777
O         14.11620       45.13978       86.25936
O         13.03826       43.41621       87.13578
H         12.77363       41.18856       82.97843
H         15.50988       40.65743       84.15233
H         14.29557       41.04704       86.32567
H         12.79433       41.41025       85.39602
H         14.02712       43.32120       84.23962
H         15.46837       42.95924       85.26564
N         12.74984       38.70035       84.26171
C         12.37912       37.30395       84.29907
H         11.28430       37.20232       84.13358
H         12.90250       36.75286       83.48759
H         12.63937       36.86520       85.28309
H         12.00218       39.38271       84.11477
Ca        13.70556       46.84787       89.61556
O         13.06627       42.60105       89.74993
H         14.03304       42.75797       89.61475
H         13.00076       42.19356       90.64853
O         11.09973       46.41590       86.69867
H         10.53075       46.58372       87.49074
H         11.18242       47.30110       86.26330
O         12.72675       44.60453       91.79454
H         13.21202       45.45025       91.96413
H         12.75370       44.12801       92.66106

Ca 1.0



