%chk=holoCaM.loop1.water2.frame472.chk
%nprocshared=20
%mem=10GB
%nosave
#b3lyp/svp scf=(tight,noincore,xqc) Test 
#IOP(5/87=12) Density=Current Pop=(MK,readradii) iop(6/33=2) iop(6/42=6)

holoCaM.loop1.water2.frame472 

   0  1 
C         -4.57535       70.81472       66.48967
C         -5.97023       71.22809       66.85100
O         -6.85792       71.15345       66.01632
H         -4.23404       70.00505       67.16826
H         -4.52669       70.45507       65.44039
H         -3.89777       71.68860       66.59824
N         -6.23367       71.67496       68.10613
C         -7.54321       72.15472       68.53183
C         -7.87463       73.44494       67.79051
O         -7.06878       74.36449       67.82708
C         -7.52722       72.33651       70.06087
C         -8.84397       72.77443       70.61940
O         -8.89247       73.86557       71.39856
O         -9.85856       72.12704       70.41647
H         -5.45793       71.67235       68.78809
H         -8.30331       71.37513       68.31815
H         -6.74174       73.06582       70.35658
H         -7.28088       71.35424       70.52149
N         -9.03937       73.57493       67.08666
C         -9.35532       74.73571       66.25257
C        -10.48722       75.59697       66.80422
O        -10.71751       76.65167       66.22747
C         -9.73439       74.25869       64.82820
C         -8.60866       73.55644       64.04853
C         -7.46174       74.52168       63.70015
C         -6.43301       73.92813       62.72303
N         -5.68736       72.80815       63.29611
H         -9.72376       72.80849       67.12602
H         -8.48316       75.41953       66.20335
H        -10.07757       75.11939       64.21333
H        -10.59323       73.55514       64.91622
H         -9.05136       73.19052       63.09603
H         -8.24352       72.67689       64.61172
H         -6.94350       74.86359       64.62016
H         -7.90313       75.40919       63.19626
H         -5.71367       74.73323       62.45363
H         -6.94352       73.60402       61.78867
H         -4.97035       72.49376       62.60257
H         -5.19864       73.11124       64.16961
H         -6.32327       72.00492       63.49663
N        -11.23916       75.24077       67.88529
C        -12.30367       76.09052       68.43249
C        -12.13339       76.34126       69.94057
O        -12.96101       77.03651       70.51302
C        -13.69253       75.52267       68.06254
C        -13.94013       74.17609       68.66070
O        -13.13841       73.14436       68.34368
O        -14.83134       74.02407       69.48078
H        -11.07092       74.32542       68.32258
H        -12.27665       77.09356       67.95232
H        -13.77739       75.44978       66.95602
H        -14.47231       76.23688       68.41073
N        -11.04815       75.87686       70.62916
C        -10.71122       76.27972       71.98878
C        -11.31151       75.46160       73.11903
O        -10.92034       75.72936       74.24749
H        -10.31336       75.38179       70.11132
H        -10.92031       77.36181       72.13257
H         -9.61078       76.17298       72.09861
N        -12.24553       74.47746       72.95017
C        -12.79372       73.75384       74.10767
C        -11.78725       72.82223       74.78244
O        -12.06641       72.39292       75.89294
C        -14.12612       73.04895       73.77914
C        -14.06164       72.03113       72.68113
O        -15.10287       71.58832       72.22387
O        -12.89299       71.68696       72.11449
H        -12.61905       74.29874       72.00649
H        -13.06670       74.52328       74.86547
H        -14.82590       73.84422       73.43922
H        -14.56113       72.58271       74.68951
N        -10.60450       72.47158       74.19645
C         -9.55767       71.73249       74.89244
C         -9.34406       70.32186       74.38789
O         -8.38588       69.70666       74.83768
H        -10.40595       72.76940       73.23212
H         -9.75989       71.65941       75.98233
H         -8.61423       72.30994       74.77832
N        -10.19844       69.71154       73.51646
C        -10.01940       68.33438       73.05231
C         -9.92796       68.28326       71.53596
O        -10.08319       69.30982       70.88553
C        -11.15830       67.42483       73.58761
C        -11.08940       67.24716       75.11355
O        -12.42128       67.89628       73.18920
H        -11.02637       70.22733       73.18508
H         -9.05921       67.91695       73.42816
H        -11.03701       66.40349       73.16989
H        -12.67590       68.64745       73.78758
H        -11.89653       66.56052       75.44821
H        -10.11336       66.79913       75.39914
H        -11.20533       68.21772       75.63974
N         -9.63665       67.10745       70.90631
C         -9.47711       66.97434       69.46219
C        -10.53453       66.02524       68.92176
O        -10.54269       64.85228       69.27185
C         -8.02356       66.52582       69.12528
C         -7.04136       67.67179       69.49755
C         -7.87985       66.14450       67.63700
C         -5.56422       67.31261       69.33323
H         -9.49484       66.26037       71.47923
H         -9.62975       67.95223       68.96986
H         -7.78757       65.61962       69.72715
H         -7.18706       67.95386       70.56196
H         -7.26138       68.56747       68.87341
H         -8.10630       67.01068       66.98315
H         -6.86103       65.77347       67.41225
H         -8.56078       65.30834       67.37915
H         -4.94214       68.18010       69.63996
H         -5.30851       66.44488       69.97663
H         -5.31035       67.08303       68.27942
N        -11.47420       66.49821       68.05571
C        -12.53499       65.68625       67.46207
C        -11.99462       64.83495       66.31530
O        -10.81624       64.90682       66.01609
C        -13.66687       66.61255       66.93083
C        -14.27625       67.45919       68.04923
O        -13.16871       67.45733       65.92863
H        -11.45214       67.50410       67.83137
H        -12.98461       65.03388       68.24304
H        -14.48052       65.98009       66.51288
H        -13.95088       67.85387       65.46362
H        -13.52846       68.16669       68.46335
H        -15.12027       68.04764       67.63925
H        -14.66287       66.81092       68.86230
N        -12.83078       64.03799       65.59170
C        -12.44069       63.35178       64.35573
C        -12.03275       64.35914       63.28470
O        -10.98432       64.20423       62.67518
C        -13.61886       62.49985       63.80316
C        -13.91522       61.29474       64.69849
O        -14.77678       63.28786       63.66889
H        -13.80934       63.96157       65.90401
H        -11.58724       62.66212       64.54273
H        -13.31379       62.10404       62.80477
H        -15.35730       62.84933       62.99401
H        -14.20447       61.61177       65.72115
H        -14.74549       60.70060       64.26061
H        -13.01774       60.64281       64.75896
N        -12.84778       65.41077       63.00467
C        -12.63317       66.39664       61.94227
C        -11.29035       67.08316       62.11102
O        -10.49678       67.09637       61.18079
C        -13.78873       67.43107       61.97652
C        -15.14576       66.76574       61.65467
C        -16.33273       67.67866       61.98557
C        -17.69582       67.01676       61.69529
N        -17.91107       65.78857       62.46956
H        -13.67281       65.51804       63.61109
H        -12.64973       65.89646       60.94812
H        -13.61403       68.25133       61.24582
H        -13.82133       67.88073       62.99297
H        -15.26687       65.85512       62.26320
H        -15.16484       66.46465       60.58480
H        -16.25671       68.61417       61.39097
H        -16.29379       67.94777       63.06484
H        -17.78470       66.79090       60.61031
H        -18.49141       67.74763       61.96048
H        -17.76860       65.96739       63.49023
H        -18.89168       65.45888       62.31960
H        -17.27465       65.02541       62.14703
N        -10.96548       67.64108       63.30402
C         -9.69386       68.29374       63.60248
C         -8.53837       67.33615       63.36455
O         -7.63554       67.67197       62.61052
C         -9.71570       68.80783       65.06121
C        -10.76469       69.93032       65.21782
C        -10.93874       70.40664       66.62692
O        -11.76366       71.27220       66.86257
O        -10.22012       69.88929       67.63701
H        -11.66197       67.55774       64.05269
H         -9.55239       69.17540       62.93765
H         -8.71945       69.21412       65.34100
H         -9.95377       67.96071       65.74275
H        -11.76132       69.58311       64.88163
H        -10.46695       70.79315       64.58352
N         -8.52434       66.10491       63.93719
C         -7.47508       65.13962       63.69409
H         -6.50398       65.53104       64.06131
H         -7.70467       64.19107       64.22616
H         -7.40469       64.92107       62.60662
H         -9.30409       65.83119       64.53891
Ca       -12.97953       71.54649       69.89268
O        -15.16472       70.69744       67.73682
H        -15.18628       71.56060       68.21680
H        -15.93148       70.19918       68.11452
O        -14.24230       68.86073       70.82675
H        -14.04878       69.19919       71.73409
H        -15.00128       69.41302       70.51275

Ca 1.0



