%chk=holoCaM-CaMKII.loop1.water2.frame66.chk
%nprocshared=20
%mem=10GB
%nosave
#b3lyp/svp scf=(tight,noincore,xqc) Test 
#IOP(5/87=12) Density=Current Pop=(MK,readradii) iop(6/33=2) iop(6/42=6)

holoCaM-CaMKII.loop1.water2.frame66 

   0  1 
C         71.53836       61.25297       74.59321
C         70.31922       61.29976       75.45987
O         70.43673       61.66871       76.61333
H         72.30018       60.59381       75.05591
H         71.29827       60.86167       73.58180
H         71.94299       62.28049       74.48529
N         69.10723       60.97576       74.93897
C         67.83096       61.02784       75.64524
C         67.71613       59.89331       76.67057
O         67.04988       58.90462       76.40039
C         66.72851       60.94262       74.57027
C         65.34520       61.07012       75.10041
O         64.43454       60.60759       74.44576
O         65.07575       61.83085       76.17513
H         69.08814       60.72791       73.93719
H         67.70281       62.01814       76.13435
H         66.81189       59.97987       74.01921
H         66.86790       61.76145       73.82993
N         68.36528       59.95801       77.86645
C         68.35989       58.87852       78.85235
C         67.00973       58.63587       79.52574
O         66.91569       57.64349       80.23521
C         69.46698       59.13672       79.90256
C         70.85246       58.85354       79.29031
C         71.98428       59.17103       80.27358
C         73.36991       58.73356       79.76169
N         73.47938       57.27622       79.63561
H         68.92169       60.79363       78.07541
H         68.60681       57.92760       78.32999
H         69.35348       58.44908       80.76829
H         69.38860       60.18060       80.28448
H         71.01153       59.44025       78.35976
H         70.87035       57.77356       79.03315
H         71.79810       58.66934       81.24740
H         71.99600       60.26984       80.44511
H         74.12350       59.08004       80.50242
H         73.60263       59.21679       78.78637
H         74.48159       57.01943       79.48496
H         73.14614       56.80752       80.50970
H         72.93039       56.93145       78.81646
N         65.92694       59.45073       79.36068
C         64.61073       59.15364       79.93846
C         63.52517       58.99768       78.86911
O         62.35899       58.87801       79.21569
C         64.29048       60.13403       81.08302
C         64.24517       61.59151       80.74758
O         64.09863       62.47067       81.75554
O         64.35404       61.99428       79.60132
H         66.02816       60.31118       78.80555
H         64.61844       58.16622       80.44822
H         65.08941       60.00172       81.84596
H         63.32627       59.85341       81.56107
N         63.86135       58.86644       77.55449
C         62.96954       58.44196       76.48697
C         61.70040       59.24717       76.33624
O         60.64862       58.64121       76.19193
H         64.84420       58.95677       77.28299
H         62.70479       57.37223       76.62954
H         63.53898       58.48893       75.53262
N         61.72147       60.60510       76.29504
C         60.54625       61.42524       76.00142
C         60.72502       62.16223       74.66950
O         59.93266       63.04204       74.36241
C         60.23473       62.38836       77.17111
C         61.40065       63.22757       77.60302
O         61.74453       63.28806       78.90256
O         62.03578       63.86609       76.78819
H         62.62257       61.08456       76.43315
H         59.63094       60.80512       75.87566
H         59.88221       61.81207       78.05423
H         59.39808       63.05284       76.86296
N         61.68208       61.77418       73.77849
C         61.86200       62.34861       72.45664
C         62.51829       63.71229       72.41732
O         62.66492       64.22297       71.31676
H         62.23904       60.94477       73.99050
H         60.88329       62.37254       71.93439
H         62.53947       61.68256       71.87821
N         62.97020       64.35788       73.52842
C         63.66431       65.64473       73.46244
C         65.08696       65.47013       74.04352
O         65.02205       65.01759       75.35500
C         62.79179       66.76851       74.09312
C         61.52437       67.01927       73.25342
O         62.43847       66.48931       75.41890
H         62.84601       63.91794       74.45058
H         63.82992       65.95392       72.41300
H         63.36705       67.71881       74.08695
H         61.77037       65.75933       75.40658
H         61.80534       67.28744       72.21334
H         60.87883       66.11466       73.22304
H         60.93264       67.85589       73.68228
N         65.93567       66.66757       73.90833
C         67.28782       66.56648       74.52137
C         67.43541       67.79873       75.39756
O         67.30819       68.90123       74.88268
C         68.47837       66.52171       73.48470
C         68.33011       65.38099       72.44272
C         69.83371       66.38482       74.22617
C         69.47698       65.33231       71.41963
H         65.99040       66.95967       72.90586
H         67.37735       65.64583       75.14242
H         68.49194       67.48541       72.92832
H         67.39698       65.54567       71.86907
H         68.26278       64.39221       72.94615
H         69.91162       65.40249       74.74090
H         70.69164       66.48901       73.52997
H         69.96801       67.18609       74.97304
H         70.42822       65.00543       71.89088
H         69.23934       64.59696       70.62308
H         69.62753       66.32743       70.94831
N         67.73678       67.69260       76.72110
C         67.98455       68.85202       77.57565
C         69.45851       69.17817       77.61535
O         70.26245       68.43842       77.08204
C         67.47512       68.61462       79.02993
C         65.95648       68.64530       79.13473
O         67.99833       67.42927       79.57803
H         67.92362       66.75842       77.09426
H         67.49222       69.75299       77.15208
H         67.81387       69.44457       79.68278
H         67.38872       66.67576       79.36547
H         65.65933       68.50454       80.19676
H         65.57932       69.62799       78.78452
H         65.52730       67.83568       78.52397
N         69.87446       70.30119       78.26106
C         71.27299       70.62498       78.53024
C         71.88326       69.53526       79.39466
O         72.99423       69.10091       79.12743
C         71.38444       71.98055       79.27517
C         70.96294       73.15905       78.39001
O         70.59829       71.95808       80.44119
H         69.14696       70.92722       78.63604
H         71.85147       70.71027       77.58208
H         72.45772       72.12768       79.54163
H         70.97992       72.62625       81.06669
H         71.10022       74.10907       78.94894
H         71.59736       73.19827       77.47897
H         69.89868       73.08192       78.08562
N         71.17121       69.03023       80.43980
C         71.63682       67.97506       81.33064
C         72.01279       66.72716       80.53491
O         73.11284       66.21778       80.68996
C         70.51641       67.67487       82.35600
C         70.99577       66.79228       83.50872
C         69.84799       66.47326       84.47501
C         70.36330       65.63732       85.65241
N         69.28168       65.29532       86.57416
H         70.22490       69.40947       80.59757
H         72.52493       68.34775       81.88676
H         69.64797       67.21042       81.83824
H         70.17124       68.63403       82.80540
H         71.79729       67.33767       84.05570
H         71.40958       65.84167       83.11261
H         69.06223       65.90373       83.93041
H         69.39885       67.41528       84.86171
H         71.14328       66.21247       86.20028
H         70.82259       64.70158       85.26416
H         69.66688       64.69641       87.33991
H         68.87755       66.16397       86.99359
H         68.53480       64.76257       86.07196
N         71.13816       66.21474       79.62885
C         71.39776       65.06673       78.76100
C         72.60430       65.31737       77.86621
O         73.40777       64.40957       77.70573
C         70.10342       64.71204       77.98034
C         69.08408       64.12053       78.99413
C         67.73030       63.76915       78.46623
O         66.99819       64.67290       77.81804
O         67.27335       62.65160       78.63241
H         70.24210       66.70314       79.52391
H         71.64156       64.17097       79.37323
H         70.30643       63.96990       77.18911
H         69.72631       65.61962       77.46951
H         68.91634       64.84378       79.81308
H         69.52109       63.19573       79.42802
N         72.83048       66.53288       77.29892
C         74.02578       66.86470       76.55080
H         74.85355       66.15334       76.75477
H         73.79622       66.88958       75.46629
H         74.37909       67.87367       76.85755
H         72.16197       67.28579       77.45530
Ca        64.85246       64.26877       77.45058
O         63.36333       66.60373       77.97349
H         63.87070       67.05435       77.25173
H         63.08439       67.33624       78.57507
O         64.76529       65.25651       80.22909
H         65.11988       65.92847       80.86169
H         64.18151       64.68481       80.78352

Ca 1.0



