%chk=holoCaM.loop3.water2.frame309.chk
%nprocshared=20
%mem=10GB
%nosave
#b3lyp/svp scf=(tight,noincore,xqc) Test 
#IOP(5/87=12) Density=Current Pop=(MK,readradii) iop(6/33=2) iop(6/42=6)

holoCaM.loop3.water2.frame309 

   0  1 
C          1.86535       37.52817       73.46968
C          0.60490       38.34006       73.40555
O         -0.40191       37.93085       73.96349
H          2.66697       38.12141       73.95830
H          1.70812       36.59175       74.04559
H          2.18800       37.26391       72.44011
N          0.60279       39.52175       72.72908
C         -0.56668       40.39211       72.59097
C         -1.65143       39.62890       71.82671
O         -1.52200       39.45099       70.62363
C         -0.08699       41.67831       71.85896
C         -0.97490       42.87541       71.62256
O         -0.50365       43.78738       70.96357
O         -2.22551       43.02557       72.09848
H          1.49647       39.81337       72.30066
H         -0.91416       40.65432       73.61357
H          0.28280       41.35789       70.86024
H          0.78491       42.07636       72.42508
N         -2.67620       39.02309       72.49963
C         -3.65485       38.14175       71.85723
C         -4.58914       38.85559       70.88651
O         -5.17240       38.17011       70.05788
C         -4.52747       37.40148       72.90466
C         -3.79298       36.36593       73.78265
C         -3.27509       35.17728       72.94801
C         -2.87368       33.95335       73.78863
N         -1.73261       34.20970       74.66517
H         -2.69174       39.11271       73.52307
H         -3.09474       37.38952       71.26383
H         -5.34279       36.85042       72.38568
H         -5.01878       38.15249       73.55892
H         -4.54776       35.97651       74.50110
H         -2.97463       36.83386       74.37003
H         -2.42405       35.49264       72.30833
H         -4.09985       34.83258       72.28685
H         -2.60973       33.12827       73.08948
H         -3.74484       33.61568       74.39354
H         -1.96609       34.94401       75.37020
H         -1.49992       33.32505       75.17317
H         -0.90317       34.50010       74.09882
N         -4.84944       40.19050       70.96628
C         -5.76623       40.89098       70.06766
C         -5.08628       42.04552       69.33360
O         -5.76302       42.72658       68.57506
C         -7.04244       41.33329       70.82596
C         -6.86344       42.32062       71.94480
O         -7.94696       42.74902       72.61956
O         -5.76359       42.74004       72.25345
H         -4.40644       40.72827       71.71292
H         -6.13238       40.20001       69.27729
H         -7.52669       40.42695       71.25054
H         -7.75003       41.77942       70.09386
N         -3.74657       42.29218       69.45101
C         -3.05537       43.30954       68.67410
C         -3.36175       44.74411       69.06034
O         -2.84700       45.62283       68.38247
H         -3.16148       41.68054       70.03450
H         -3.29556       43.15555       67.59929
H         -1.95965       43.17075       68.78891
N         -4.16812       45.08448       70.11044
C         -4.50120       46.47959       70.40680
C         -3.29792       47.32575       70.82895
O         -3.44038       48.53855       70.89294
C         -5.65094       46.57472       71.43748
C         -5.27067       46.20093       72.85349
N         -5.51006       47.05916       73.87194
O         -4.77031       45.11377       73.09196
H         -4.60441       44.33921       70.66612
H         -4.90198       46.90425       69.45912
H         -6.47629       45.91088       71.09998
H         -6.04571       47.61388       71.43503
H         -5.94720       47.97666       73.70246
H         -5.27641       46.80082       74.84092
N         -2.09648       46.76067       71.14991
C         -0.90752       47.51792       71.51804
C         -0.50220       47.30039       72.96222
O          0.52498       47.83253       73.35952
H         -2.00874       45.73809       71.15372
H         -1.05954       48.61008       71.38016
H         -0.07863       47.20557       70.84753
N         -1.28924       46.59719       73.82450
C         -1.03242       46.47507       75.25236
C         -1.09458       45.02582       75.68439
O         -2.02294       44.32285       75.30805
C         -2.11893       47.26414       76.00461
C         -1.99850       48.74732       75.74687
C         -2.97040       49.42557       74.99575
C         -0.90808       49.46802       76.26446
C         -2.85378       50.79771       74.76024
C         -0.79785       50.84311       76.03768
C         -1.77133       51.51246       75.28218
O         -1.67872       52.83784       75.05361
H         -2.17556       46.19690       73.48552
H         -0.04688       46.90211       75.54315
H         -2.04531       47.09833       77.10234
H         -3.10925       46.88645       75.67746
H         -3.81253       48.89462       74.58252
H         -0.14962       48.96754       76.85380
H         -3.60797       51.30549       74.17248
H          0.04283       51.38648       76.45041
H         -0.94996       53.37047       75.40261
N         -0.19859       44.55703       76.59482
C         -0.29630       43.24562       77.22030
C         -0.80707       43.46790       78.63224
O         -0.21575       44.24109       79.37404
C          1.06780       42.50142       77.15686
C          1.42834       42.23317       75.67031
C          1.00407       41.18392       77.95883
C          2.77855       41.54788       75.45662
H          0.52298       45.20229       76.95437
H         -1.03798       42.60725       76.69366
H          1.85135       43.14335       77.61834
H          1.46177       43.19998       75.12355
H          0.64019       41.60252       75.20612
H          0.75491       41.38231       79.02231
H          0.23953       40.49937       77.53453
H          1.98684       40.67195       77.96816
H          3.59596       42.15992       75.89158
H          2.79463       40.53211       75.90047
H          2.95874       41.43236       74.36654
N         -1.92215       42.81000       79.06042
C         -2.54233       43.01195       80.36037
C         -2.25138       41.83847       81.26776
O         -1.63695       40.87460       80.83121
C         -4.06286       43.20963       80.17991
O         -4.65988       42.05366       79.64398
H         -2.33794       42.10003       78.44830
H         -2.11703       43.91542       80.84827
H         -4.26089       44.09502       79.53166
H         -4.54947       43.42303       81.15391
H         -4.81870       42.21609       78.67755
N         -2.63417       41.87366       82.57522
C         -2.36125       40.77868       83.49810
C         -3.10546       39.52004       83.10152
O         -2.61911       38.43497       83.38834
C         -2.73417       41.16377       84.92841
H         -3.10909       42.71952       82.92744
H         -1.26575       40.57802       83.48305
H         -2.16436       42.06795       85.23176
H         -3.82139       41.37822       85.00354
H         -2.47527       40.33721       85.62416
N         -4.29240       39.58814       82.43296
C         -4.99342       38.40858       81.94568
C         -4.12984       37.69457       80.93016
O         -3.86381       36.51040       81.07980
C         -6.32221       38.81303       81.28697
H         -4.70129       40.51523       82.23874
H         -5.23299       37.73167       82.79532
H         -6.15900       39.50274       80.43057
H         -6.85627       37.91194       80.91611
H         -6.97170       39.32594       82.02704
N         -3.65531       38.38537       79.85877
C         -2.86094       37.78461       78.79388
C         -1.48020       37.34740       79.27380
O         -0.79660       36.66833       78.52024
C         -2.70456       38.79310       77.63968
C         -4.07109       39.23426       77.07055
C         -3.88259       40.34277       76.09591
O         -4.30532       40.23114       74.83674
O         -3.33136       41.37343       76.43679
H         -3.89681       39.38489       79.79942
H         -3.41041       36.89523       78.41258
H         -2.09502       38.35635       76.81672
H         -2.16074       39.67888       78.03851
H         -4.74163       39.63085       77.85581
H         -4.57671       38.36954       76.58907
N         -0.99028       37.71891       80.49300
C          0.30715       37.32316       80.99958
H          0.92863       38.22842       81.16564
H          0.17243       36.80211       81.97101
H          0.84525       36.64318       80.30774
H         -1.54239       38.33187       81.10140
Ca        -3.32055       41.77733       73.57341
O         -6.48696       42.07618       75.65971
H         -6.92121       42.76482       75.09761
H         -7.00979       42.07362       76.50014
O         -4.71870       44.55904       76.41350
H         -5.68734       44.66009       76.58952
H         -4.28394       45.16075       77.06844

Ca 1.0



