%chk=holoCaM-CaMKII.loop2.water2.frame161.chk
%nprocshared=20
%mem=10GB
%nosave
#b3lyp/svp scf=(tight,noincore,xqc) Test 
#IOP(5/87=12) Density=Current Pop=(MK,readradii) iop(6/33=2) iop(6/42=6)

holoCaM-CaMKII.loop2.water2.frame161 

   -2  1 
C         -6.72813       94.00152        7.92143
C         -6.62147       95.49017        7.73556
O         -7.55917       96.21248        8.03498
H         -5.93698       93.66484        8.62811
H         -7.71470       93.71363        8.34008
H         -6.57571       93.48490        6.95083
N         -5.45632       96.01371        7.27845
C         -5.16980       97.44131        7.18199
C         -5.96283       98.17037        6.10190
O         -5.90597       97.75782        4.95161
C         -3.66958       97.61150        6.88277
C         -3.30576       99.05507        6.83360
O         -2.78790       99.52557        5.83373
O         -3.60226       99.84290        7.88168
H         -4.69568       95.34647        7.06924
H         -5.36206       97.90772        8.17450
H         -3.40402       97.12007        5.92020
H         -3.07972       97.13204        7.69034
N         -6.62519       99.33660        6.39320
C         -7.25339      100.18050        5.37394
C         -6.69739      101.61918        5.31779
O         -7.10063      102.33492        4.41135
C         -8.76468      100.22502        5.62283
H         -6.66777       99.64860        7.37475
H         -7.09184       99.73663        4.36780
H         -8.98253      100.68334        6.61183
H         -9.27583      100.81774        4.83375
H         -9.18322       99.19604        5.60693
N         -5.83575      102.13903        6.25012
C         -5.40315      103.55214        6.26412
C         -3.89071      103.75618        6.47331
O         -3.46573      104.90362        6.48135
C         -6.21042      104.33216        7.33156
C         -6.25604      103.59092        8.62772
O         -5.12434      103.18398        9.21791
O         -7.32893      103.19805        9.05952
H         -5.56524      101.55098        7.04891
H         -5.63496      104.04167        5.29300
H         -7.25791      104.43500        6.97017
H         -5.80525      105.35722        7.46999
N         -3.01298      102.72302        6.60748
C         -1.56327      102.88927        6.70445
C         -1.03010      103.51741        7.98962
O          0.17162      103.73628        8.05007
H         -3.37333      101.77294        6.53981
H         -1.22558      103.49678        5.83714
H         -1.08221      101.89044        6.61742
N         -1.82617      103.83303        9.05116
C         -1.34305      104.49571       10.27013
C         -0.41061      103.65553       11.16676
O         -0.03193      104.15358       12.21853
C         -2.53630      105.05316       11.08643
C         -3.47317      104.03887       11.69037
N         -4.51330      104.46876       12.43942
O         -3.30695      102.84194       11.51593
H         -2.83071      103.66230        8.96083
H         -0.77631      105.40135        9.95894
H         -3.13215      105.72279       10.42754
H         -2.13508      105.67435       11.91634
H         -4.67031      105.47535       12.59383
H         -5.15971      103.79975       12.87383
N          0.04512      102.41721       10.81714
C          1.00200      101.65219       11.60998
C          0.42933      100.93059       12.82072
O          1.20233      100.25932       13.48862
H         -0.19449      102.03698        9.89902
H          1.84498      102.31239       11.91150
H          1.42667      100.85496       10.96252
N         -0.88934      100.98909       13.16314
C         -1.46769      100.26855       14.30278
C         -2.60564       99.36302       13.84629
O         -2.93006       99.36106       12.66709
C         -1.97414      101.29428       15.34993
C         -0.80593      102.06965       15.96248
O         -2.87122      102.20657       14.76761
H         -1.52045      101.57273       12.60285
H         -0.71349       99.61434       14.79249
H         -2.46833      100.77513       16.20205
H         -3.73506      101.73287       14.64874
H         -0.25500      102.64148       15.18664
H         -1.18446      102.78155       16.72604
H         -0.10312      101.36634       16.45978
N         -3.29063       98.59599       14.75259
C         -4.48656       97.83608       14.40249
C         -5.65887       98.53483       15.05929
O         -5.76566       98.52025       16.27833
C         -4.40216       96.33887       14.84013
C         -3.16341       95.64026       14.22734
C         -5.70069       95.59641       14.44923
C         -2.97393       94.19831       14.71531
H         -3.01028       98.61975       15.74423
H         -4.63841       97.86017       13.30484
H         -4.29980       96.30628       15.94808
H         -2.25244       96.20338       14.52148
H         -3.23173       95.64020       13.11885
H         -6.58561       96.07934       14.90548
H         -5.82846       95.58742       13.34573
H         -5.70821       94.55308       14.82056
H         -2.89801       94.17156       15.82342
H         -3.80497       93.54012       14.39040
H         -2.03960       93.78027       14.28643
N         -6.55762       99.21664       14.29681
C         -7.70476       99.91660       14.86090
C         -8.72912       98.91553       15.35960
O         -8.54173       97.72123       15.18308
C         -8.34928      100.84876       13.80995
C         -7.40712      101.93115       13.35983
O         -7.71891      103.22429       13.57012
O         -6.36437      101.65020       12.79407
H         -6.39695       99.26305       13.28416
H         -7.36153      100.55084       15.70946
H         -9.23411      101.34980       14.25319
H         -8.68599      100.26184       12.92950
N         -9.84323       99.33279       16.01511
C        -10.84632       98.40646       16.51764
C        -11.54921       97.63311       15.40151
O        -11.53487       96.41338       15.48835
C        -11.83313       99.12914       17.45615
C        -12.87290       98.20133       18.05104
C        -14.23712       98.52142       17.94524
C        -12.50037       97.02012       18.72494
C        -15.20667       97.68118       18.50104
C        -13.47475       96.17515       19.26346
C        -14.82644       96.50688       19.15490
H         -9.95844      100.34180       16.19979
H        -10.31680       97.66875       17.16005
H        -12.32242       99.97353       16.92850
H        -11.24127       99.56067       18.29276
H        -14.55166       99.42797       17.44385
H        -11.46133       96.73940       18.83027
H        -16.25411       97.94137       18.42481
H        -13.18066       95.26347       19.76801
H        -15.57872       95.85509       19.57969
N        -12.18238       98.21271       14.32814
C        -12.90098       97.43046       13.32881
C        -11.97867       96.57871       12.47113
O        -12.48061       95.73172       11.74428
C        -13.66072       98.48742       12.52156
C        -12.70478       99.66122       12.57291
C        -12.24126       99.62830       14.03091
H        -13.63361       96.75358       13.82128
H        -13.99532       98.16989       11.51023
H        -14.55785       98.79363       13.10627
H        -11.83716       99.40804       11.91978
H        -13.11767      100.63795       12.24290
H        -11.25854      100.13329       14.07971
H        -12.97285      100.10942       14.71296
N        -10.62771       96.73830       12.49642
C         -9.71169       95.86047       11.78315
C         -9.58935       94.56945       12.56011
O         -9.85284       93.50757       12.01498
C         -8.33678       96.53361       11.62898
C         -8.47254       97.82387       10.80846
C         -7.18831       98.56902       10.66937
O         -7.22315       99.76951       10.08395
O         -6.13860       98.13963       11.11525
H        -10.22548       97.50699       13.05136
H        -10.08360       95.66651       10.75054
H         -7.63582       95.84333       11.10906
H         -7.91755       96.78094       12.62830
H         -9.18212       98.51214       11.31082
H         -8.87348       97.60247        9.79699
N         -9.21753       94.60277       13.86994
C         -9.11390       93.41993       14.69057
H        -10.09515       92.90216       14.73133
H         -8.33959       92.73978       14.28064
H         -8.82533       93.70940       15.72479
H         -9.02053       95.50774       14.31394
Ca        -5.49420      101.17468       10.08106
O         -1.85280      100.26423        9.85532
H         -1.41006      100.37548        8.97555
H         -1.95941       99.28702        9.94937
O         -3.58048       97.28627       10.29630
H         -3.73726       97.12437       11.25818
H         -2.73841       96.80505       10.10315

Ca 1.0



