%chk=holoCaM.loop1.water1.frame2.chk
%nprocshared=20
%mem=10GB
%nosave
#b3lyp/svp scf=(tight,noincore,xqc) Test 
#IOP(5/87=12) Density=Current Pop=(MK,readradii) iop(6/33=2) iop(6/42=6)

holoCaM.loop1.water1.frame2 

   0  1 
C         82.10367       38.71933       34.51916
C         83.21794       37.82712       34.06167
O         84.21156       38.33153       33.56079
H         81.26351       38.13118       34.94536
H         82.47966       39.41686       35.29537
H         81.72054       39.30129       33.65499
N         83.12398       36.47793       34.20707
C         84.15973       35.56096       33.75232
C         84.25876       35.62970       32.23578
O         83.28565       35.29202       31.57613
C         83.79047       34.13274       34.20022
C         84.80423       33.08816       33.86543
O         85.87441       33.37029       33.35736
O         84.51175       31.80893       34.13191
H         82.28288       36.09262       34.66512
H         85.12241       35.84502       34.23454
H         82.82953       33.84293       33.72217
H         83.64953       34.11395       35.30270
N         85.40372       36.04624       31.61919
C         85.53939       36.18854       30.17053
C         86.40643       35.09239       29.56113
O         86.49952       35.05669       28.34132
C         86.13655       37.57655       29.81609
C         85.37404       38.86032       30.23308
C         84.00922       39.06118       29.54475
C         82.85161       38.36369       30.26933
N         81.62737       38.39194       29.47458
H         86.21840       36.26830       32.20287
H         84.56350       36.05649       29.66707
H         86.27579       37.63112       28.71374
H         87.14919       37.63641       30.27568
H         86.02320       39.69159       29.87700
H         85.29357       38.97484       31.33341
H         84.09435       38.73686       28.48535
H         83.75678       40.14465       29.54761
H         82.68370       38.85522       31.25315
H         83.08619       37.32245       30.46262
H         80.86302       37.92521       30.01525
H         81.35020       39.37473       29.25591
H         81.77853       37.85567       28.58830
N         87.06067       34.16436       30.31861
C         87.86901       33.08731       29.75171
C         87.40404       31.69417       30.21633
O         88.05733       30.72074       29.86860
C         89.35873       33.38736       30.01981
C         89.70564       33.51653       31.46778
O         89.57908       32.45866       32.27376
O         90.13785       34.56776       31.91261
H         87.02491       34.23261       31.34307
H         87.78687       33.07239       28.64272
H         89.60572       34.34793       29.51421
H         89.99390       32.59704       29.56627
N         86.24155       31.50988       30.91722
C         85.67161       30.20165       31.24598
C         86.35806       29.40496       32.35334
O         85.86414       28.33102       32.66648
H         85.65198       32.32619       31.12527
H         85.61337       29.58900       30.32026
H         84.62856       30.36561       31.59553
N         87.47381       29.84456       32.99682
C         88.16021       29.10332       34.06893
C         87.39552       29.00299       35.40414
O         87.94642       28.41896       36.32798
C         89.55996       29.71952       34.33759
C         89.53537       31.17124       34.74550
O         90.57973       31.75167       34.99320
O         88.37764       31.85846       34.71045
H         87.88543       30.72092       32.66287
H         88.34812       28.06666       33.71075
H         90.16650       29.63980       33.40878
H         90.07693       29.12543       35.12196
N         86.14780       29.51848       35.59933
C         85.43410       29.42596       36.87200
C         85.99433       30.30885       37.98346
O         85.50119       30.20102       39.09828
H         85.65502       29.93572       34.81034
H         85.43227       28.36284       37.20002
H         84.37548       29.72960       36.72362
N         86.99996       31.20432       37.76865
C         87.62072       32.02738       38.80521
C         87.50767       33.50467       38.45787
O         87.93356       33.88171       37.38191
C         89.11477       31.62342       38.90433
C         89.91148       32.48120       39.89869
O         89.23044       30.26416       39.24326
H         87.38171       31.29458       36.82149
H         87.15258       31.85194       39.79952
H         89.58633       31.76188       37.90557
H         88.84708       30.14909       40.15263
H         89.89095       33.54675       39.59642
H         89.49003       32.39473       40.92145
H         90.97197       32.15244       39.91012
N         87.04808       34.41743       39.35898
C         87.04903       35.86180       39.11765
C         88.15881       36.48929       39.94493
O         88.18096       36.32155       41.15827
C         85.64717       36.47566       39.41588
C         84.63839       35.98838       38.34003
C         85.70881       38.02051       39.44965
C         83.19872       36.45592       38.56723
H         86.76551       34.08610       40.29524
H         87.27999       36.09044       38.05287
H         85.31813       36.13732       40.42386
H         84.62764       34.87780       38.32475
H         84.96564       36.34296       37.33639
H         86.40895       38.37046       40.23722
H         86.03924       38.42900       38.47144
H         84.72722       38.45763       39.71942
H         82.54961       36.04352       37.76592
H         82.82785       36.09673       39.54971
H         83.11170       37.56016       38.51861
N         89.10714       37.25544       39.32879
C         90.22519       37.90105       40.00816
C         90.09348       39.41381       39.92954
O         89.14499       39.90671       39.33414
C         91.55946       37.46528       39.34290
C         91.75929       35.95046       39.39016
O         91.58273       37.89654       38.00352
H         89.03012       37.40618       38.31040
H         90.24335       37.62060       41.08485
H         92.39924       37.93752       39.90188
H         92.53544       37.94418       37.72774
H         92.74257       35.68998       38.94364
H         91.73934       35.59034       40.44012
H         90.96791       35.44011       38.80435
N         91.02237       40.21985       40.51123
C         91.02858       41.67478       40.37675
C         91.27861       42.07475       38.92643
O         90.51187       42.86728       38.39875
C         92.07831       42.32685       41.30887
C         91.71457       42.10732       42.78564
O         93.35943       41.81604       41.04427
H         91.77296       39.77339       41.06129
H         90.04120       42.08550       40.69307
H         92.06374       43.42535       41.11460
H         94.00665       42.41576       41.49912
H         90.70899       42.53067       42.99883
H         91.70907       41.02872       43.04574
H         92.44964       42.62339       43.43804
N         92.31570       41.53699       38.21043
C         92.59807       41.88196       36.81107
C         91.46306       41.55249       35.84526
O         91.59947       41.89793       34.67806
C         93.85242       41.13722       36.29339
C         95.16440       41.59627       36.94416
C         96.38817       40.91891       36.29026
C         96.48972       39.39662       36.51012
N         96.70910       39.05921       37.91713
H         92.92794       40.85579       38.68229
H         92.77358       42.97866       36.74770
H         93.96538       41.34075       35.20481
H         93.69560       40.04547       36.42439
H         95.15556       41.43268       38.04008
H         95.26099       42.69015       36.76867
H         97.31502       41.39074       36.68030
H         96.35401       41.11437       35.19513
H         97.35511       39.02203       35.91965
H         95.58754       38.87357       36.12834
H         95.89486       39.35056       38.50213
H         96.82452       38.02393       38.00472
H         97.58134       39.52300       38.26170
N         90.32606       40.90862       36.22561
C         89.25084       40.58629       35.30423
C         88.07377       41.49413       35.58931
O         87.66841       42.21775       34.69028
C         88.97425       39.07842       35.38866
C         87.96941       38.59869       34.33999
C         88.08029       37.11155       34.18938
O         87.87147       36.29133       35.23075
O         88.42833       36.63767       33.12044
H         90.20020       40.62075       37.20082
H         89.56555       40.78721       34.25534
H         88.64387       38.77370       36.40592
H         89.94950       38.58080       35.18183
H         88.21626       39.05145       33.35506
H         86.93783       38.90374       34.61977
N         87.53001       41.57584       36.83428
C         86.50572       42.53585       37.19391
H         85.61525       42.00499       37.58496
H         86.90438       43.20638       37.98605
H         86.19804       43.17166       36.33695
H         87.88623       40.96847       37.58017
Ca        88.12685       34.09142       34.82294
O         90.98175       35.06784       35.59869
H         91.75476       35.32693       35.03686
H         91.30619       34.29671       36.12838

Ca 1.0



