%chk=holoCaM-CaMKII.loop4.water2.frame134.chk
%nprocshared=20
%mem=10GB
%nosave
#b3lyp/svp scf=(tight,noincore,xqc) Test 
#IOP(5/87=12) Density=Current Pop=(MK,readradii) iop(6/33=2) iop(6/42=6)

holoCaM-CaMKII.loop4.water2.frame134 

   -3  1 
C         40.87309       34.63230       75.89855
C         42.31307       34.54171       76.31885
O         43.09276       35.41770       75.97853
H         40.40870       35.54440       76.32448
H         40.81352       34.66667       74.79056
H         40.29353       33.74812       76.24351
N         42.73205       33.49615       77.07740
C         44.11918       33.27426       77.47448
C         44.95013       32.94528       76.23381
O         44.63693       31.98101       75.55025
C         44.12059       32.14123       78.52159
C         45.45078       31.58915       78.91974
O         45.56705       30.37916       78.98449
O         46.56928       32.31191       79.02805
H         42.01788       32.81492       77.38139
H         44.51566       34.18472       77.97927
H         43.56582       31.27742       78.09043
H         43.55778       32.46827       79.42244
N         46.00840       33.73314       75.87619
C         46.81001       33.54682       74.66072
C         48.27495       33.18063       74.94877
O         48.97852       32.90729       73.98571
C         46.67745       34.78486       73.70367
C         47.09320       36.11507       74.38487
C         45.24559       34.86138       73.14270
C         47.05685       37.34129       73.46676
H         46.23480       34.51907       76.49071
H         46.42828       32.66852       74.09540
H         47.34653       34.61876       72.83015
H         48.13203       36.00974       74.76387
H         46.41386       36.33035       75.23108
H         44.99084       33.91392       72.62268
H         44.50945       35.03365       73.94974
H         45.14684       35.67010       72.39052
H         47.43428       38.22838       74.01887
H         47.69637       37.18277       72.57449
H         46.02046       37.57702       73.14822
N         48.79492       33.08997       76.21432
C         50.13919       32.56017       76.50469
C         50.10072       31.30035       77.39448
O         51.16082       30.75162       77.66279
C         51.11192       33.64323       77.04867
C         50.71522       34.39231       78.29152
O         49.48717       34.28146       78.80511
O         51.48815       35.20054       78.77708
H         48.19954       33.35443       77.00720
H         50.61942       32.22081       75.55898
H         51.26862       34.40792       76.25585
H         52.09615       33.15801       77.23085
N         48.92657       30.72387       77.79369
C         48.82892       29.41603       78.43959
C         49.15020       29.37471       79.92346
O         50.02026       28.61077       80.31556
H         48.04256       31.14273       77.48572
H         49.45175       28.68539       77.87845
H         47.77862       29.06951       78.35339
N         48.43875       30.12408       80.81401
C         48.62027       30.07330       82.26807
C         47.30197       29.92525       83.04270
O         47.34869       29.94928       84.26582
C         49.37150       31.34552       82.71646
C         48.65276       32.64108       82.45510
O         47.52173       32.65773       82.00141
O         49.26872       33.80385       82.73486
H         47.76184       30.79137       80.43323
H         49.26864       29.21488       82.54859
H         50.33905       31.37233       82.17256
H         49.59305       31.28864       83.80461
N         46.09126       29.80650       82.42065
C         44.82363       29.83211       83.13540
C         44.63974       31.17832       83.79564
O         44.43771       31.23827       84.99992
H         46.04247       29.73145       81.39821
H         44.77006       29.00334       83.87577
H         43.99302       29.69526       82.40764
N         44.70269       32.30968       83.03685
C         44.57833       33.66607       83.57547
C         44.48649       34.67717       82.43133
O         45.04350       34.44253       81.36783
C         45.77445       34.00307       84.51031
C         45.61672       35.34188       85.25349
C         46.84860       35.69237       86.05586
N         47.28116       34.90329       87.06724
O         47.46164       36.71605       85.79062
H         44.83368       32.17701       82.02240
H         43.62659       33.70615       84.14961
H         46.70174       34.03409       83.90834
H         45.89692       33.20823       85.27320
H         44.73645       35.29184       85.93009
H         45.45063       36.15699       84.52061
H         46.78061       34.04044       87.32162
H         48.12311       35.16237       87.60410
N         43.74771       35.81270       82.57526
C         43.54511       36.79032       81.50996
C         44.05714       38.15028       81.95904
O         43.52160       38.72151       82.89862
C         42.03731       36.79285       81.13157
C         41.61367       37.99420       80.27375
C         41.69681       35.49298       80.37738
H         43.27505       35.98091       83.47660
H         44.11369       36.51137       80.59782
H         41.43928       36.84359       82.06907
H         40.52189       37.93603       80.07135
H         41.78655       38.94432       80.82088
H         42.16364       38.01959       79.31094
H         42.25640       35.45204       79.41553
H         41.96689       34.59619       80.97281
H         40.61164       35.44421       80.15028
N         45.11606       38.72207       81.31303
C         45.65595       40.03649       81.63397
C         44.78470       41.09838       80.96906
O         43.89783       40.73779       80.21168
C         47.11137       40.11945       81.08596
C         47.95592       41.20563       81.69456
N         48.28957       41.15121       83.00417
O         48.39347       42.10645       80.99668
H         45.57410       38.19485       80.56470
H         45.68320       40.13419       82.74037
H         47.08347       40.22033       79.98361
H         47.65364       39.17739       81.30799
H         47.96934       40.36980       83.59493
H         48.89856       41.87077       83.41998
N         44.98819       42.42637       81.17628
C         44.29746       43.46731       80.40945
C         44.80812       43.48644       78.97237
O         44.01178       43.60637       78.05288
C         44.50310       44.83454       81.08526
C         43.85037       45.97747       80.33629
C         42.47111       45.97730       80.05048
C         44.63114       47.06922       79.92379
C         41.89293       47.04728       79.35784
C         44.04984       48.13974       79.24100
C         42.67840       48.13177       78.95319
O         42.10732       49.15894       78.29234
H         45.68353       42.70778       81.88302
H         43.20140       43.27582       80.41555
H         45.59226       45.02548       81.19929
H         44.05741       44.78366       82.10255
H         41.84036       45.15250       80.35608
H         45.69213       47.09668       80.13691
H         40.83245       47.03516       79.13721
H         44.66797       48.97482       78.93748
H         42.61736       49.92780       77.99917
N         46.13549       43.31756       78.71718
C         46.71801       43.21342       77.37900
C         46.01584       42.13696       76.57018
O         45.72976       42.35984       75.40220
C         48.23719       42.90040       77.48273
C         49.05071       44.06117       78.10024
C         49.12441       45.29263       77.22923
O         48.62812       45.31734       76.11340
O         49.77699       46.37968       77.68082
H         46.75366       43.19085       79.52757
H         46.58422       44.16851       76.83338
H         48.66590       42.67730       76.48051
H         48.37240       41.98836       78.10761
H         50.09386       43.71949       78.27277
H         48.62533       44.34225       79.08538
N         45.68242       40.95172       77.14081
C         44.96429       39.89583       76.43714
C         43.52289       40.31683       76.17335
O         43.03717       40.11195       75.07030
C         45.07898       38.55975       77.20507
C         46.57642       38.22191       77.40957
C         46.82210       36.87411       77.99815
O         47.63962       36.13054       77.48423
O         46.20864       36.50055       79.12913
H         45.92648       40.80911       78.12943
H         45.46332       39.69713       75.46186
H         44.59227       37.76196       76.60122
H         44.56617       38.61686       78.19100
H         47.03569       38.95399       78.09470
H         47.12109       38.28972       76.44421
N         42.81050       40.98469       77.12568
C         41.46960       41.50344       76.93975
H         40.80320       41.09704       77.72911
H         41.48955       42.61142       77.03897
H         41.04852       41.25016       75.94574
H         43.25510       41.18534       78.02433
Ca        47.47066       34.19494       79.72343
O         47.29975       36.20574       82.37827
H         47.06048       37.16037       82.29960
H         47.94643       36.18110       83.12612
O         49.39954       36.91659       80.52052
H         50.05685       37.50621       80.96748
H         49.67178       36.91714       79.56963

Ca 1.0



