%chk=holoCaM.loop1.water2.frame324.chk
%nprocshared=20
%mem=10GB
%nosave
#b3lyp/svp scf=(tight,noincore,xqc) Test 
#IOP(5/87=12) Density=Current Pop=(MK,readradii) iop(6/33=2) iop(6/42=6)

holoCaM.loop1.water2.frame324 

   0  1 
C         -5.39951       38.45505       72.71047
C         -6.63291       37.66105       73.02288
O         -6.88306       36.66348       72.36324
H         -4.49863       37.80820       72.72144
H         -5.52434       38.90124       71.70206
H         -5.25334       39.28215       73.43824
N         -7.47610       38.07395       74.00516
C         -8.74876       37.42755       74.29243
C         -9.69232       37.54219       73.07791
O        -10.03397       38.64491       72.67569
C         -9.35326       38.07426       75.55833
C        -10.75171       37.61742       75.77951
O        -11.01181       36.31388       75.94487
O        -11.66597       38.41513       75.66752
H         -7.21326       38.91111       74.54896
H         -8.56761       36.35309       74.52704
H         -9.36728       39.17789       75.43450
H         -8.72399       37.83062       76.44497
N        -10.13786       36.41090       72.45624
C        -10.96188       36.36183       71.24148
C        -12.45790       36.27192       71.51602
O        -13.22296       36.43975       70.57512
C        -10.60817       35.07714       70.45857
C         -9.17066       35.09448       69.91991
C         -8.71665       33.70811       69.44010
C         -9.51112       33.19897       68.22974
N         -9.11533       31.83608       67.88218
H         -9.75876       35.52749       72.80415
H        -10.76773       37.25770       70.61193
H        -11.30957       34.92974       69.61023
H        -10.73849       34.21312       71.15381
H         -8.47926       35.38818       70.73336
H         -9.09022       35.84636       69.10481
H         -8.81535       32.99354       70.28729
H         -7.64091       33.76111       69.16426
H         -9.33048       33.87734       67.36645
H        -10.59735       33.19108       68.45165
H         -9.68611       31.51737       67.06632
H         -8.10165       31.80136       67.62963
H         -9.30256       31.19722       68.68991
N        -12.94672       35.89071       72.72667
C        -14.37066       35.66966       72.98593
C        -14.86145       36.53968       74.13722
O        -15.86556       36.21530       74.75567
C        -14.70347       34.14343       73.02530
C        -13.82985       33.28502       73.89182
O        -13.88718       32.06983       73.80160
O        -12.94213       33.86498       74.70349
H        -12.27771       35.71039       73.48387
H        -14.98351       36.02661       72.12904
H        -14.55414       33.77104       71.98843
H        -15.76610       33.96361       73.29600
N        -14.30914       37.77902       74.31976
C        -14.88684       38.83286       75.14377
C        -14.95129       38.58877       76.63653
O        -15.50554       39.43992       77.31740
H        -13.49425       38.04791       73.74930
H        -15.91689       39.02307       74.77611
H        -14.29788       39.76442       74.98973
N        -14.40552       37.49596       77.23340
C        -14.51443       37.24271       78.67377
C        -13.34376       37.81440       79.48144
O        -13.35074       37.68285       80.69745
C        -14.72389       35.73461       78.91834
C        -13.64222       34.90429       78.29892
O        -12.35844       35.14048       78.60570
O        -13.92221       34.04386       77.47977
H        -13.87797       36.83219       76.64946
H        -15.41853       37.74950       79.07672
H        -15.69678       35.42577       78.47700
H        -14.76044       35.53365       80.00942
N        -12.32556       38.48746       78.88288
C        -11.19706       39.08836       79.57519
C        -10.36111       38.07629       80.31325
O         -9.90029       38.37096       81.40490
H        -12.34312       38.60202       77.86943
H        -11.52747       39.90079       80.25645
H        -10.53755       39.54585       78.80366
N        -10.04870       36.89859       79.71430
C         -9.11390       35.91393       80.25479
C         -8.57958       35.03792       79.13656
O         -9.20024       34.90376       78.09134
C         -9.64125       35.05300       81.45018
C         -9.72194       35.79365       82.78225
O        -10.87237       34.44044       81.17754
H        -10.42366       36.76131       78.76560
H         -8.21477       36.47456       80.58982
H         -8.89407       34.24598       81.61827
H        -11.50593       35.15129       80.90126
H         -8.74848       36.28561       82.99343
H        -10.54126       36.53627       82.78333
H         -9.92575       35.06668       83.59757
N         -7.34253       34.49257       79.27468
C         -6.63932       33.80380       78.20829
C         -6.50059       32.33176       78.58392
O         -6.00198       31.99991       79.64888
C         -5.31066       34.55607       77.89144
C         -5.64587       35.96346       77.30018
C         -4.43114       33.75020       76.92317
C         -4.41716       36.81269       76.96661
H         -6.84174       34.61942       80.16754
H         -7.21967       33.84923       77.26868
H         -4.73267       34.68129       78.83183
H         -6.24878       36.53108       78.04061
H         -6.25685       35.86708       76.37205
H         -4.94702       33.60325       75.96557
H         -3.47126       34.26487       76.72336
H         -4.17785       32.76188       77.35684
H         -4.73702       37.83416       76.66784
H         -3.75281       36.88976       77.85167
H         -3.85441       36.38361       76.11169
N         -6.95582       31.40125       77.70056
C         -6.99598       29.95455       77.86421
C         -5.80667       29.30878       77.17601
O         -4.98183       30.00901       76.61014
C         -8.27965       29.41528       77.14272
C         -9.58187       29.92163       77.75705
O         -8.23218       29.70278       75.75943
H         -7.29677       31.75038       76.80994
H         -6.99591       29.67676       78.94006
H         -8.33189       28.31214       77.23325
H         -8.68784       30.56311       75.56985
H         -9.62839       31.02568       77.68773
H        -10.43813       29.49003       77.19386
H         -9.65202       29.60297       78.81599
N         -5.71314       27.94824       77.11569
C         -4.82332       27.25437       76.18660
C         -5.15613       27.64079       74.75056
O         -4.23190       27.83508       73.97349
C         -4.91186       25.70879       76.32083
C         -4.11682       25.20001       77.53111
O         -6.25476       25.28851       76.37353
H         -6.37614       27.38811       77.67158
H         -3.76509       27.54505       76.36972
H         -4.42134       25.26565       75.42471
H         -6.25836       24.30101       76.47558
H         -3.07495       25.58715       77.48193
H         -4.57864       25.50824       78.48977
H         -4.05207       24.09071       77.48980
N         -6.44613       27.74428       74.31568
C         -6.78360       28.09136       72.93444
C         -6.54613       29.56855       72.57403
O         -6.77983       29.92883       71.42882
C         -8.17461       27.54934       72.53133
C         -9.39214       28.04258       73.32814
C        -10.71624       27.65670       72.63208
C        -10.90907       26.15980       72.30455
N        -10.93941       25.31281       73.49588
H         -7.20190       27.54066       74.98353
H         -6.10219       27.52064       72.26809
H         -8.13871       26.44099       72.62718
H         -8.32153       27.79097       71.45750
H         -9.37209       29.15045       73.39264
H         -9.37080       27.63167       74.36045
H        -10.75651       28.20442       71.66533
H        -11.56607       28.01196       73.25392
H        -10.11123       25.80778       71.61520
H        -11.87417       26.04959       71.76154
H        -11.11408       24.32490       73.19803
H        -10.02359       25.34909       73.99681
H        -11.71253       25.61319       74.13205
N         -6.03177       30.45956       73.47029
C         -5.63793       31.83765       73.15866
C         -4.15925       32.09962       73.48221
O         -3.67678       33.16107       73.10974
C         -6.53173       32.78412       73.97803
C         -7.94926       32.85029       73.39497
C         -9.00635       33.28391       74.35987
O         -8.84310       33.13516       75.68268
O        -10.11489       33.54397       73.93234
H         -5.90035       30.14977       74.43409
H         -5.76488       32.05674       72.07513
H         -6.14035       33.82539       74.02731
H         -6.52502       32.37533       74.99535
H         -8.28736       31.86403       73.02532
H         -7.91155       33.55996       72.54087
N         -3.37216       31.20924       74.15820
C         -1.97788       31.46580       74.46153
H         -1.40214       31.60516       73.52302
H         -1.87430       32.36751       75.10317
H         -1.54646       30.59964       75.01056
H         -3.75140       30.31820       74.49017
Ca       -11.36425       34.13185       76.24060
O        -11.39838       32.32926       78.80786
H        -11.06784       33.13531       79.26490
H        -11.44654       31.64660       79.52101
O        -12.26116       31.37142       76.23635
H        -12.63029       30.60952       76.74677
H        -12.27118       31.06600       75.29684

Ca 1.0



