%chk=holoCaM.loop3.water2.frame468.chk
%nprocshared=20
%mem=10GB
%nosave
#b3lyp/svp scf=(tight,noincore,xqc) Test 
#IOP(5/87=12) Density=Current Pop=(MK,readradii) iop(6/33=2) iop(6/42=6)

holoCaM.loop3.water2.frame468 

   0  1 
C         22.91466       41.32951       90.31901
C         22.59861       40.43008       91.47692
O         23.47960       39.73394       91.95374
H         23.97825       41.23467       90.01695
H         22.27100       41.05502       89.45566
H         22.70877       42.38375       90.60052
N         21.33321       40.41584       91.97603
C         20.85180       39.57496       93.07820
C         20.95338       38.10977       92.64155
O         20.09020       37.62853       91.92182
C         19.41898       40.08888       93.39084
C         18.57920       39.61150       94.53712
O         18.90665       38.64094       95.39735
O         17.48239       40.12954       94.67293
H         20.66750       41.06659       91.52708
H         21.48742       39.74973       93.97303
H         18.80331       39.95186       92.47549
H         19.52209       41.18157       93.57596
N         22.12007       37.43112       92.86333
C         22.48433       36.15522       92.24017
C         21.70006       34.97565       92.80176
O         21.53683       33.98683       92.10168
C         24.01669       35.96644       92.36259
C         24.61929       34.88368       91.45479
C         26.15650       34.98135       91.48626
C         26.82130       34.02804       90.48571
N         28.27300       34.22080       90.47275
H         22.84791       37.92038       93.39228
H         22.25627       36.26065       91.15586
H         24.30676       35.79877       93.42399
H         24.47237       36.92783       92.03365
H         24.28267       35.07330       90.41207
H         24.28175       33.87154       91.76449
H         26.52930       34.77167       92.51300
H         26.45289       36.01774       91.20942
H         26.42568       34.23123       89.46541
H         26.58485       32.97527       90.75376
H         28.67450       34.02424       91.41808
H         28.70198       33.56864       89.77726
H         28.50265       35.20295       90.19273
N         21.16541       35.03382       94.05385
C         20.28121       34.02954       94.63644
C         18.85899       34.54846       94.85442
O         18.03122       33.78320       95.33149
C         20.88784       33.38650       95.90765
C         21.25191       34.17415       97.15880
O         21.21020       35.51889       97.31128
O         21.65872       33.52296       98.10783
H         21.39166       35.85269       94.60791
H         20.15671       33.18738       93.91953
H         21.81862       32.86629       95.59459
H         20.17266       32.59642       96.22864
N         18.46783       35.79182       94.44829
C         17.08991       36.25778       94.50227
C         16.53410       36.50693       95.89250
O         15.37047       36.87548       95.96505
H         19.14509       36.41122       93.98859
H         16.44407       35.52431       93.97154
H         17.01587       37.21917       93.94924
N         17.26428       36.34086       97.03621
C         16.67479       36.54451       98.36165
C         16.25477       37.99213       98.64669
O         15.58642       38.19960       99.65221
C         17.60730       36.02119       99.48296
C         18.93368       36.73499       99.61581
N         19.77943       36.40338      100.61657
O         19.25448       37.61011       98.83028
H         18.23490       36.00866       96.97255
H         15.75712       35.91530       98.40143
H         17.81264       34.94212       99.31010
H         17.06848       36.11205      100.45079
H         19.52920       35.67029      101.29546
H         20.68206       36.88957      100.71986
N         16.61328       39.03903       97.84452
C         16.20598       40.42056       98.06973
C         17.36131       41.35597       98.40472
O         17.10233       42.52955       98.60986
H         17.20614       38.86033       97.02973
H         15.48678       40.48834       98.91557
H         15.68415       40.78674       97.16034
N         18.63944       40.89671       98.56155
C         19.73377       41.69994       99.10661
C         21.00049       41.54723       98.28375
O         21.37159       40.42610       97.97491
C         20.01822       41.19121      100.53369
C         18.81902       41.40157      101.42730
C         18.11615       40.30334      101.94932
C         18.38696       42.70330      101.73665
C         16.99568       40.50548      102.76122
C         17.27019       42.90258      102.55152
C         16.56903       41.80297      103.06562
O         15.48737       41.98099      103.85046
H         18.82667       39.90200       98.42032
H         19.46705       42.77552       99.17894
H         20.88680       41.72767      100.97522
H         20.27867       40.11028      100.48198
H         18.42699       39.29158      101.72006
H         18.91529       43.56525      101.34849
H         16.45726       39.65186      103.15267
H         16.95082       43.91164      102.78061
H         15.16141       42.86196      104.08434
N         21.76752       42.64146       97.98188
C         23.06143       42.54354       97.30737
C         24.14633       42.99971       98.28206
O         24.20798       44.17222       98.61985
C         23.05268       43.37777       95.99503
C         21.92104       42.87847       95.05813
C         24.42473       43.30514       95.29215
C         21.69299       43.76949       93.83683
H         21.45143       43.57319       98.28695
H         23.26572       41.48642       97.03155
H         22.84556       44.43742       96.26468
H         20.95716       42.86627       95.61014
H         22.14087       41.84224       94.72872
H         25.23125       43.67846       95.95651
H         24.66095       42.25881       95.00428
H         24.44725       43.94091       94.38529
H         20.84455       43.36787       93.24366
H         21.43479       44.79960       94.16369
H         22.58081       43.80143       93.17603
N         24.99828       42.08070       98.82112
C         26.01620       42.38845       99.82608
C         27.25542       43.04497       99.22619
O         27.32747       43.23336       98.01969
C         26.42940       41.07719      100.53359
O         27.01794       40.19159       99.61887
H         24.84108       41.09462       98.57872
H         25.57198       43.04891      100.60284
H         25.51461       40.61971      100.97594
H         27.14564       41.27741      101.35827
H         27.00552       39.29560      100.04471
N         28.30352       43.37036      100.04066
C         29.61262       43.80942       99.56348
C         30.27938       42.69584       98.77560
O         30.72903       42.93783       97.66613
C         30.51341       44.18255      100.74776
H         28.17989       43.25299      101.05786
H         29.50626       44.72281       98.93611
H         30.05366       45.01325      101.32361
H         30.66447       43.31753      101.42829
H         31.50547       44.52271      100.37859
N         30.36094       41.43390       99.29483
C         30.95223       40.29811       98.58468
C         30.19065       39.90101       97.31763
O         30.64298       38.99029       96.63715
C         30.99498       39.07816       99.51901
H         29.98625       41.27837      100.24388
H         31.99748       40.56161       98.31165
H         29.96378       38.77985       99.81173
H         31.48595       38.21454       99.02117
H         31.56972       39.31850      100.43823
N         29.02656       40.50924       96.94974
C         28.21394       40.11844       95.80490
C         28.14094       41.23312       94.76090
O         27.55739       41.01050       93.70956
C         26.83488       39.73833       96.37714
C         25.80476       39.15672       95.40464
C         24.55279       38.75310       96.14828
O         23.61951       38.26233       95.54448
O         24.44851       38.90670       97.48199
H         28.64811       41.25929       97.53256
H         28.65758       39.23039       95.30413
H         26.39666       40.63867       96.85924
H         27.01713       38.96723       97.15915
H         26.23021       38.25963       94.90570
H         25.53311       39.90623       94.63335
N         28.73351       42.44726       94.95470
C         28.71940       43.49134       93.95458
H         29.24048       43.14184       93.03824
H         27.67489       43.77644       93.71142
H         29.25303       44.38776       94.34006
H         29.21993       42.65738       95.83061
Ca        20.48314       37.27650       96.11747
O         24.05471       35.93936       97.67390
H         24.47665       35.61944       96.83728
H         23.96975       35.12983       98.23683
O         22.73383       38.65518       99.94095
H         22.70648       38.46519      100.91171
H         23.04429       39.59354       99.88321

Ca 1.0



