%chk=holoCaM-CaMKII.loop1.water2.frame258.chk
%nprocshared=20
%mem=10GB
%nosave
#b3lyp/svp scf=(tight,noincore,xqc) Test 
#IOP(5/87=12) Density=Current Pop=(MK,readradii) iop(6/33=2) iop(6/42=6)

holoCaM-CaMKII.loop1.water2.frame258 

   0  1 
C         86.13034      -11.30865       58.50846
C         85.59913      -11.68316       57.16103
O         85.25113      -10.78793       56.40271
H         87.02693      -10.66577       58.37137
H         85.35953      -10.74343       59.07017
H         86.42723      -12.20509       59.09060
N         85.55432      -12.98695       56.76273
C         85.18047      -13.33876       55.40454
C         83.69517      -13.09084       55.16879
O         82.87218      -13.73371       55.80729
C         85.52544      -14.80658       55.08894
C         85.61442      -15.03030       53.60735
O         85.62164      -13.98318       52.75355
O         85.78877      -16.15798       53.17740
H         85.89169      -13.72145       57.40407
H         85.81615      -12.69963       54.75093
H         84.77846      -15.48425       55.55976
H         86.52323      -15.07300       55.49567
N         83.28509      -12.14202       54.28660
C         81.88257      -11.80515       54.06816
C         81.11820      -12.92480       53.37112
O         80.06461      -13.30341       53.86383
C         81.77998      -10.49622       53.24966
C         80.34448       -9.94854       53.08204
C         79.67587       -9.56518       54.41665
C         78.29286       -8.93767       54.19083
N         77.66683       -8.57635       55.46376
H         84.00805      -11.58743       53.80672
H         81.42875      -11.59493       55.05951
H         82.21930      -10.66006       52.24172
H         82.38300       -9.71090       53.75755
H         79.71446      -10.68799       52.54265
H         80.41210       -9.03352       52.45367
H         80.31956       -8.83398       54.95325
H         79.54472      -10.46453       55.05280
H         77.63955       -9.66155       53.65496
H         78.39596       -8.02472       53.56312
H         78.25657       -7.87672       55.97066
H         76.72841       -8.15418       55.27764
H         77.54101       -9.42733       56.05895
N         81.57248      -13.47781       52.20522
C         80.77976      -14.40995       51.39560
C         81.12740      -15.88403       51.60529
O         80.49460      -16.71786       50.97157
C         80.79358      -13.97643       49.91007
C         82.12742      -14.08504       49.22133
O         82.23167      -13.74044       48.05530
O         83.20374      -14.57117       49.86081
H         82.49695      -13.18459       51.85676
H         79.71356      -14.33643       51.70542
H         80.45178      -12.91963       49.85202
H         80.06957      -14.59957       49.34143
N         82.01854      -16.29354       52.55324
C         82.14261      -17.69008       52.95958
C         82.89541      -18.62074       52.02505
O         83.01174      -19.78619       52.37941
H         82.50589      -15.58934       53.12627
H         81.12814      -18.09803       53.16062
H         82.70001      -17.71616       53.92155
N         83.49114      -18.20685       50.87039
C         84.35433      -19.08455       50.06010
C         85.63159      -19.55354       50.79569
O         86.39050      -20.29593       50.18828
C         84.72095      -18.42547       48.69470
C         85.40111      -17.09283       48.81230
O         85.68866      -16.44763       47.81793
O         85.54808      -16.56225       50.02856
H         83.32978      -17.23755       50.56650
H         83.77570      -19.99850       49.80058
H         83.78138      -18.26302       48.12314
H         85.36162      -19.11514       48.10413
N         85.92200      -19.22150       52.09407
C         87.06605      -19.76287       52.82125
C         88.35877      -19.00897       52.58862
O         89.36421      -19.39939       53.16859
H         85.28011      -18.64028       52.64103
H         87.18071      -20.84518       52.59298
H         86.85828      -19.68429       53.91042
N         88.41544      -17.91229       51.78796
C         89.61670      -17.12335       51.54784
C         89.38991      -15.68090       51.97236
O         88.35957      -15.10770       51.64584
C         90.01785      -17.21256       50.05112
C         90.63787      -18.57794       49.74669
O         88.92163      -17.03037       49.19011
H         87.55826      -17.60295       51.30914
H         90.48726      -17.49906       52.13257
H         90.80448      -16.45595       49.82880
H         88.45782      -16.20108       49.45788
H         90.94922      -18.61958       48.68145
H         91.54230      -18.73603       50.37422
H         89.91404      -19.39631       49.94312
N         90.35894      -15.00563       52.64907
C         90.25498      -13.60476       53.04172
C         91.17699      -12.80226       52.14536
O         92.34975      -13.14268       52.03508
C         90.61529      -13.42395       54.54527
C         89.69337      -14.30059       55.43115
C         90.50902      -11.93452       54.94369
C         90.05896      -14.27259       56.91734
H         91.25232      -15.48777       52.84328
H         89.21472      -13.23055       52.90191
H         91.66715      -13.75603       54.69562
H         89.77573      -15.35957       55.10537
H         88.63697      -13.97995       55.30854
H         89.46593      -11.57028       54.82103
H         90.82644      -11.77018       55.99196
H         91.17774      -11.30698       54.32003
H         91.11132      -14.59882       57.06019
H         89.92241      -13.26354       57.35468
H         89.39468      -14.96761       57.47256
N         90.71446      -11.70079       51.49206
C         91.52664      -10.89926       50.58551
C         91.92000       -9.59291       51.23748
O         91.53186       -9.32889       52.36987
C         90.75403      -10.62178       49.26279
C         90.38522      -11.90674       48.51666
O         89.61392       -9.82847       49.50062
H         89.75015      -11.38984       51.68139
H         92.47371      -11.43009       50.34194
H         91.40300      -10.04843       48.56881
H         88.87247      -10.42002       49.78786
H         89.72598      -12.53407       49.14926
H         89.84773      -11.65169       47.57720
H         91.29967      -12.48034       48.26024
N         92.71314       -8.72051       50.56371
C         93.04808       -7.39151       51.05384
C         91.78646       -6.54586       51.15858
O         91.63039       -5.84550       52.14526
C         94.09645       -6.70487       50.14618
C         95.42769       -7.47464       50.15548
O         93.61253       -6.59567       48.83230
H         93.07209       -9.00806       49.63980
H         93.51581       -7.46789       52.06282
H         94.28491       -5.68840       50.56537
H         94.16875       -5.90947       48.37909
H         95.81930       -7.55249       51.19269
H         95.31027       -8.49904       49.74489
H         96.18037       -6.93912       49.54019
N         90.83934       -6.56648       50.17254
C         89.60334       -5.78218       50.23568
C         88.64532       -6.23620       51.35118
O         87.67353       -5.53283       51.59035
C         88.91241       -5.81330       48.84654
C         87.64660       -4.94033       48.69359
C         87.82756       -3.45374       49.05647
C         88.86654       -2.73367       48.18437
N         88.97057       -1.32432       48.56234
H         91.02140       -7.13901       49.33436
H         89.90689       -4.73324       50.43918
H         88.64052       -6.86271       48.59686
H         89.65338       -5.48061       48.08836
H         86.83468       -5.35600       49.32446
H         87.29617       -5.01651       47.64137
H         88.10844       -3.35537       50.12565
H         86.84521       -2.95010       48.92555
H         88.56615       -2.80797       47.11590
H         89.86415       -3.20739       48.30529
H         89.67505       -0.85530       47.94856
H         88.04678       -0.84853       48.44339
H         89.28289       -1.24269       49.55757
N         88.85333       -7.36145       52.09765
C         87.98374       -7.77412       53.20209
C         88.67509       -7.60665       54.55084
O         88.02637       -7.82446       55.56454
C         87.53287       -9.23952       53.01836
C         86.69574       -9.43878       51.74780
C         86.30867      -10.88040       51.57037
O         87.16709      -11.74052       51.45722
O         85.01010      -11.22826       51.50753
H         89.66954       -7.94590       51.89815
H         87.07966       -7.12812       53.24768
H         86.91614       -9.55392       53.89008
H         88.43614       -9.88704       52.98472
H         87.27034       -9.11584       50.85721
H         85.77680       -8.81699       51.81400
N         89.96974       -7.19423       54.65585
C         90.61124       -6.95203       55.92752
H         91.65992       -6.62196       55.76038
H         90.07395       -6.14456       56.46904
H         90.61875       -7.87846       56.53709
H         90.53040       -7.03226       53.81815
Ca        85.84742      -14.45196       50.59626
O         88.13097      -14.16813       48.00623
H         89.06214      -14.50281       47.96036
H         87.64217      -14.71436       47.34303
O         85.72746      -12.24183       48.31562
H         85.00373      -12.82363       47.97206
H         86.23549      -11.97505       47.50870

Ca 1.0



