%chk=holoCaM-CaMKII.loop3.water2.frame497.chk
%nprocshared=20
%mem=10GB
%nosave
#b3lyp/svp scf=(tight,noincore,xqc) Test 
#IOP(5/87=12) Density=Current Pop=(MK,readradii) iop(6/33=2) iop(6/42=6)

holoCaM-CaMKII.loop3.water2.frame497 

   0  1 
C          1.89817       89.33250       92.37529
C          2.69463       90.30943       91.56380
O          3.44434       91.09158       92.13041
H          0.81491       89.46289       92.16780
H          2.19861       88.29948       92.10115
H          2.07607       89.48262       93.46106
N          2.55486       90.32992       90.21107
C          3.29539       91.22695       89.33089
C          2.34793       92.30874       88.81644
O          1.16752       92.25954       89.13762
C          3.95656       90.34429       88.24602
C          4.87065       91.04427       87.28584
O          5.94313       91.75966       87.66797
O          4.65039       90.94630       86.09758
H          1.86760       89.68963       89.78093
H          4.09011       91.75437       89.90128
H          3.15673       89.82645       87.66976
H          4.54388       89.55298       88.74271
N          2.80286       93.35569       88.06804
C          1.95722       94.48537       87.66606
C          1.68867       94.48295       86.15817
O          0.76965       95.16119       85.72261
C          2.66311       95.78270       88.12586
C          1.88752       97.09021       87.92351
C          2.78217       98.29226       88.27446
C          2.02971       99.61850       88.11262
N          2.91611      100.75754       88.35488
H          3.80072       93.38187       87.81372
H          0.96913       94.40542       88.16840
H          3.60833       95.85635       87.56174
H          2.91251       95.69646       89.20768
H          0.97956       97.07841       88.56405
H          1.58508       97.19909       86.86265
H          3.66165       98.29219       87.59176
H          3.14939       98.20680       89.32123
H          1.18170       99.64735       88.83211
H          1.62080       99.69403       87.08073
H          3.68489      100.76906       87.64510
H          2.36711      101.64315       88.26749
H          3.32549      100.70456       89.31575
N          2.46483       93.76032       85.30342
C          2.27494       93.68376       83.85226
C          2.32316       92.24045       83.33562
O          2.18416       92.05703       82.13424
C          3.31456       94.57218       83.09556
C          4.77461       94.33471       83.41458
O          5.64514       94.93614       82.80788
O          5.08935       93.58851       84.47935
H          3.25948       93.26331       85.70791
H          1.27528       94.08593       83.57781
H          3.10386       95.63850       83.32846
H          3.15699       94.43759       82.00395
N          2.52688       91.16941       84.15848
C          2.64433       89.79798       83.68955
C          3.74411       89.62994       82.66059
O          3.43137       89.20539       81.55727
H          2.58431       91.30792       85.17115
H          1.67425       89.48515       83.24669
H          2.85273       89.12940       84.55473
N          5.04731       89.93783       82.93740
C          6.11971       89.79751       81.95330
C          7.17732       88.78194       82.37347
O          8.13108       88.61523       81.62464
C          6.73234       91.17950       81.61841
C          7.57032       91.82984       82.69195
N          8.13527       93.03604       82.45092
O          7.76564       91.27354       83.76103
H          5.28953       90.29721       83.86907
H          5.70384       89.42468       80.99276
H          5.90623       91.86949       81.33777
H          7.39063       91.06315       80.73013
H          7.98625       93.51533       81.55042
H          8.72634       93.49364       83.15834
N          7.07092       88.04214       83.52135
C          8.05150       87.03844       83.90646
C          8.61742       87.31316       85.27647
O          8.54637       86.44713       86.13727
H          6.25283       88.15370       84.13610
H          8.90239       87.00552       83.19136
H          7.57056       86.03703       83.89430
N          9.24683       88.49110       85.52619
C          9.96475       88.79659       86.76191
C          9.39598       90.02279       87.45620
O          8.48456       90.65203       86.93635
C         11.48401       88.94175       86.46368
C         11.79283       89.66934       85.17267
C         12.14375       91.02651       85.15156
C         11.72264       88.96017       83.95739
C         12.40045       91.66580       83.93013
C         11.98034       89.59631       82.74498
C         12.31746       90.95454       82.72539
O         12.56279       91.58228       81.55761
H          9.25361       89.19762       84.77458
H          9.85241       87.97251       87.50099
H         11.91674       87.92340       86.35371
H         12.02901       89.38476       87.32364
H         12.20465       91.59083       86.07327
H         11.45959       87.90887       83.95106
H         12.66004       92.71640       83.91817
H         11.91394       89.03097       81.82339
H         12.51262       91.12093       80.70742
N          9.87683       90.38024       88.68486
C          9.36696       91.48117       89.49705
C         10.48729       92.48754       89.70762
O         11.59061       92.07221       90.04251
C          8.89299       90.96952       90.89869
C          8.05474       89.66858       90.87307
C          8.13779       92.08398       91.65596
C          6.74511       89.75478       90.11361
H         10.64166       89.81885       89.09156
H          8.49902       91.96657       88.99544
H          9.79443       90.70050       91.49323
H          7.82405       89.37409       91.92057
H          8.65867       88.85004       90.42740
H          7.23569       92.41227       91.09601
H          7.82249       91.73316       92.66102
H          8.78162       92.96976       91.80076
H          6.94395       89.97321       89.04979
H          6.22811       88.77413       90.17714
H          6.07636       90.52429       90.54798
N         10.25996       93.82731       89.63017
C         11.28319       94.82708       89.91756
C         11.03357       95.45738       91.27599
O         10.05461       95.12006       91.92451
C         11.32891       95.87380       88.79155
O         10.11597       96.57893       88.71868
H          9.30179       94.15177       89.45264
H         12.28470       94.34816       89.97698
H         11.56201       95.36466       87.82630
H         12.14613       96.60414       88.96568
H          9.68713       96.34571       87.85494
N         11.91203       96.35653       91.79496
C         11.75870       96.95829       93.11729
C         10.46547       97.74268       93.21912
O          9.71013       97.52619       94.15523
C         12.94678       97.87422       93.42248
H         12.74011       96.60722       91.23145
H         11.76171       96.15633       93.89054
H         12.84377       98.30276       94.44252
H         13.88977       97.28724       93.38693
H         13.01162       98.70233       92.68556
N         10.13795       98.65250       92.26071
C          8.90347       99.43173       92.26963
C          7.67841       98.54043       92.35074
O          6.83645       98.76038       93.21048
C          8.82136      100.28448       90.99586
H         10.79101       98.77431       91.47095
H          8.90729      100.12246       93.14173
H          8.82025       99.64104       90.08870
H          7.89286      100.89445       90.99961
H          9.69248      100.97089       90.93941
N          7.52130       97.50888       91.47927
C          6.34350       96.64362       91.44863
C          6.11557       95.94288       92.78066
O          4.96542       95.79930       93.17112
C          6.44617       95.62274       90.29471
C          6.50190       96.33887       88.92856
C          6.64583       95.37559       87.79349
O          5.82476       95.35415       86.89367
O          7.71615       94.56799       87.72898
H          8.28464       97.33986       90.80798
H          5.44534       97.26899       91.24357
H          5.55263       94.95890       90.30532
H          7.34919       94.99329       90.44359
H          7.36859       97.02449       88.87193
H          5.57985       96.94464       88.79528
N          7.15889       95.53397       93.55608
C          7.00116       94.92537       94.86268
H          5.93594       94.79859       95.14842
H          7.49051       93.92961       94.86948
H          7.48945       95.56839       95.62632
H          8.11785       95.68631       93.22708
Ca         6.70490       92.83630       85.83374
O          9.82773       93.19226       85.96959
H         10.45397       93.93763       85.79189
H          9.80674       92.67912       85.12363
O          8.06803       95.46553       84.78417
H          8.91591       95.92255       84.55716
H          7.36317       96.13093       84.58494

Ca 1.0



