%chk=holoCaM-CaMKII.loop2.water2.frame294.chk
%nprocshared=20
%mem=10GB
%nosave
#b3lyp/svp scf=(tight,noincore,xqc) Test 
#IOP(5/87=12) Density=Current Pop=(MK,readradii) iop(6/33=2) iop(6/42=6)

holoCaM-CaMKII.loop2.water2.frame294 

   -2  1 
C         43.72259       14.50641      -29.78640
C         44.65750       14.57466      -30.96102
O         44.54937       15.49583      -31.75678
H         42.67478       14.41082      -30.13474
H         43.95916       13.64108      -29.12992
H         43.82728       15.43158      -29.18021
N         45.63197       13.63818      -31.11045
C         46.65579       13.70105      -32.14446
C         46.07275       13.55568      -33.54745
O         45.41406       12.55989      -33.81356
C         47.69130       12.57819      -31.90401
C         48.95061       12.75665      -32.69663
O         49.14024       13.77056      -33.34639
O         49.91469       11.82040      -32.62962
H         45.68878       12.88322      -30.40893
H         47.17900       14.67644      -32.03209
H         47.23055       11.59390      -32.13715
H         48.00234       12.56690      -30.83911
N         46.32831       14.49215      -34.50767
C         45.87446       14.38795      -35.89392
C         47.03514       14.31400      -36.89415
O         46.76190       14.16467      -38.07725
C         44.99871       15.60555      -36.21761
H         46.88793       15.31188      -34.24578
H         45.26241       13.47059      -36.03060
H         45.58919       16.54349      -36.11843
H         44.60388       15.54564      -37.25450
H         44.13769       15.65663      -35.51810
N         48.33953       14.46148      -36.51213
C         49.46824       14.53632      -37.44277
C         50.64775       13.61584      -37.08256
O         51.60693       13.60527      -37.84262
C         49.94166       16.01111      -37.52412
C         50.07651       16.65801      -36.16571
O         49.46012       17.67970      -35.91172
O         50.79224       16.05403      -35.20210
H         48.54513       14.64214      -35.52596
H         49.15537       14.23722      -38.46768
H         49.18942       16.59399      -38.10035
H         50.90022       16.07020      -38.08310
N         50.67220       12.82125      -35.97271
C         51.78579       11.93638      -35.62873
C         53.11857       12.61349      -35.29537
O         54.06534       11.88591      -35.03163
H         49.84734       12.78548      -35.36813
H         51.94887       11.23224      -36.47322
H         51.49763       11.33061      -34.74283
N         53.29617       13.96749      -35.31012
C         54.59614       14.62369      -35.12980
C         55.13201       14.60904      -33.68678
O         56.18781       15.18681      -33.46742
C         54.55207       16.06096      -35.73366
C         53.74286       17.07116      -34.97138
N         53.52471       18.30873      -35.46872
O         53.29159       16.78330      -33.88653
H         52.50414       14.55308      -35.57365
H         55.32903       14.09124      -35.77438
H         54.13509       15.98062      -36.76163
H         55.58170       16.46777      -35.81455
H         53.89687       18.58236      -36.38811
H         52.96858       18.99212      -34.93319
N         54.49487       13.96253      -32.66233
C         55.04493       13.86471      -31.31404
C         54.65463       15.00012      -30.37959
O         55.11185       14.97347      -29.24553
H         53.66126       13.40059      -32.86280
H         56.15197       13.76393      -31.36593
H         54.66938       12.92910      -30.84600
N         53.82263       16.01647      -30.75736
C         53.44368       17.12634      -29.88606
C         51.89465       17.21274      -29.68549
O         51.06301       17.19070      -30.82013
C         54.08438       18.45155      -30.37744
C         55.61519       18.41222      -30.27968
O         53.71235       18.72904      -31.69838
H         53.45276       16.02223      -31.70870
H         53.85281       16.97232      -28.86163
H         53.78218       19.29054      -29.70582
H         52.86221       19.23299      -31.64590
H         56.04028       19.38950      -30.59494
H         55.92832       18.23130      -29.22726
H         56.04205       17.61489      -30.92237
N         51.56955       18.39705      -28.87323
C         50.20068       18.95994      -28.99645
C         50.29526       20.25161      -29.79422
O         51.07113       21.12387      -29.42955
C         49.54044       19.15478      -27.59989
C         49.29470       17.75815      -26.96062
C         48.20876       19.92853      -27.72876
C         48.78696       17.80927      -25.52121
H         51.95023       18.34070      -27.90055
H         49.50980       18.27656      -29.53557
H         50.22705       19.75143      -26.95997
H         50.23974       17.17670      -26.94245
H         48.56344       17.18975      -27.57687
H         47.49431       19.38055      -28.38042
H         47.73955       20.10033      -26.74131
H         48.38130       20.93576      -28.15953
H         49.52365       18.33397      -24.87799
H         47.80227       18.31099      -25.44849
H         48.66021       16.77192      -25.14488
N         49.47608       20.45491      -30.86962
C         49.44333       21.69180      -31.64832
C         48.22191       22.50224      -31.26251
O         47.45121       22.05960      -30.42468
C         49.40421       21.37840      -33.16086
C         50.62954       20.66063      -33.63499
O         50.92378       19.44345      -33.15344
O         51.34780       21.16360      -34.48412
H         48.77572       19.73385      -31.09704
H         50.32892       22.32442      -31.42067
H         49.31720       22.32416      -33.73654
H         48.51268       20.75438      -33.39362
N         48.00539       23.73532      -31.80594
C         46.86215       24.56111      -31.44117
C         45.54496       23.90619      -31.85357
O         44.67528       23.82734      -30.99669
C         46.97718       25.99393      -32.00906
C         45.90094       26.88611      -31.43870
C         45.92285       27.23895      -30.07683
C         44.86640       27.36937      -32.25638
C         44.92811       28.06371      -29.54545
C         43.86732       28.18589      -31.71780
C         43.89947       28.53490      -30.36467
H         48.69767       24.11518      -32.46864
H         46.87982       24.67736      -30.33360
H         46.91475       25.99144      -33.10866
H         47.96404       26.43427      -31.74831
H         46.71464       26.88344      -29.42870
H         44.82535       27.10346      -33.30528
H         44.95516       28.33680      -28.49828
H         43.06734       28.54769      -32.34999
H         43.12758       29.17025      -29.95069
N         45.29662       23.39098      -33.10834
C         44.02658       22.77416      -33.49331
C         43.64618       21.53070      -32.69731
O         42.57608       20.98931      -32.93709
C         44.24074       22.36477      -34.95830
C         45.25558       23.38048      -35.42934
C         46.20393       23.42039      -34.23841
H         43.24167       23.55840      -33.40551
H         44.76372       21.37928      -34.99535
H         43.31046       22.28707      -35.56067
H         45.74382       23.13647      -36.39672
H         44.74838       24.36870      -35.51370
H         46.83016       22.50220      -34.20904
H         46.84740       24.30763      -34.31932
N         44.49056       21.00331      -31.76620
C         44.24684       19.78069      -31.01888
C         44.04764       20.08461      -29.54120
O         43.38790       19.30359      -28.86983
C         45.46267       18.84710      -31.19158
C         45.79948       18.59049      -32.67171
C         47.07655       17.82186      -32.84758
O         47.50176       17.62778      -33.97226
O         47.78281       17.37989      -31.79020
H         45.39598       21.44938      -31.60708
H         43.32931       19.27520      -31.39455
H         45.28658       17.88491      -30.66345
H         46.34172       19.34416      -30.72358
H         45.95010       19.56055      -33.19141
H         44.96415       18.04924      -33.16566
N         44.59457       21.19022      -28.95652
C         44.41332       21.50964      -27.56029
H         43.33552       21.66620      -27.34701
H         44.81485       20.69185      -26.92702
H         44.96098       22.44725      -27.31907
H         45.16789       21.84079      -29.50175
Ca        50.90462       16.66334      -33.02537
O         48.99863       15.22905      -30.08367
H         48.50549       15.99338      -29.69568
H         48.69757       14.45109      -29.55285
O         51.44863       14.26305      -31.59761
H         51.55962       14.06612      -32.56189
H         51.83478       13.48042      -31.13328

Ca 1.0



