%chk=holoCaM-CaMKII.loop3.water1.frame247.chk
%nprocshared=20
%mem=10GB
%nosave
#b3lyp/svp scf=(tight,noincore,xqc) Test 
#IOP(5/87=12) Density=Current Pop=(MK,readradii) iop(6/33=2) iop(6/42=6)

holoCaM-CaMKII.loop3.water1.frame247 

   0  1 
C         89.06105       93.33648       48.92524
C         87.69035       92.73783       48.91925
O         87.56071       91.53647       48.72662
H         89.82985       92.55608       48.74256
H         89.13109       94.10894       48.13201
H         89.25298       93.80453       49.91370
N         86.60570       93.52688       49.14882
C         85.25710       92.98900       49.19717
C         84.86161       92.45559       47.82328
O         84.87122       93.20838       46.85899
C         84.26383       94.06482       49.67148
C         82.92331       93.48518       50.01523
O         82.74315       92.15388       50.12344
O         81.99802       94.23532       50.25511
H         86.75647       94.53105       49.33459
H         85.25547       92.17954       49.95729
H         84.15376       94.82954       48.87110
H         84.63796       94.57195       50.58707
N         84.52653       91.14722       47.67064
C         84.22490       90.51609       46.38713
C         83.02969       91.16098       45.69343
O         83.13965       91.51730       44.52943
C         83.95788       89.00829       46.62653
C         83.77866       88.10665       45.38351
C         85.07362       87.65146       44.66350
C         85.83955       88.67534       43.80773
N         85.02817       89.18573       42.70246
H         84.52983       90.55818       48.51553
H         85.11354       90.62553       45.74970
H         83.02371       88.94079       47.22824
H         84.77164       88.56725       47.24351
H         83.02237       88.51503       44.68163
H         83.35267       87.16009       45.78490
H         84.79348       86.82033       43.97957
H         85.76910       87.22840       45.42125
H         86.72808       88.15872       43.38092
H         86.24177       89.50593       44.41086
H         84.70783       88.39457       42.09778
H         84.20163       89.70907       43.06306
H         85.60854       89.83549       42.12436
N         81.85577       91.34081       46.35905
C         80.62365       91.83848       45.74514
C         80.32655       93.27849       46.15502
O         80.02196       94.06398       45.26699
C         79.46349       90.82900       45.96425
C         79.34298       90.33570       47.37995
O         79.05472       91.17288       48.38460
O         79.64023       89.18020       47.63922
H         81.83675       91.10476       47.36148
H         80.73261       91.88886       44.63732
H         79.70172       89.93838       45.34012
H         78.49851       91.24137       45.59998
N         80.47862       93.73246       47.43209
C         80.32019       95.13816       47.79991
C         79.29522       95.37834       48.89075
O         79.13092       96.52934       49.27081
H         80.78992       93.07979       48.15871
H         80.02767       95.75896       46.92590
H         81.30209       95.51912       48.15110
N         78.54865       94.37154       49.43006
C         77.50321       94.60577       50.42416
C         78.02347       95.13783       51.76403
O         77.20423       95.57318       52.56082
C         76.63550       93.33561       50.60980
C         77.36062       92.13000       51.16571
N         76.70109       90.96067       51.32427
O         78.54002       92.19456       51.46771
H         78.67196       93.42096       49.07052
H         76.83151       95.38416       49.99702
H         76.22567       93.05405       49.61431
H         75.77909       93.57034       51.27656
H         75.70759       90.87752       51.06556
H         77.18717       90.13428       51.70224
N         79.35259       95.13808       52.08354
C         79.90499       95.73341       53.29522
C         80.55760       94.73468       54.23711
O         81.09095       95.17302       55.24634
H         80.01908       94.71558       51.43252
H         79.11854       96.26185       53.87704
H         80.65771       96.49045       52.98952
N         80.48211       93.38753       54.03376
C         80.89392       92.38935       55.02207
C         81.69949       91.29037       54.35525
O         81.21421       90.74491       53.37184
C         79.61135       91.78292       55.62825
C         78.73516       92.87237       56.20449
C         79.14841       93.61358       57.32508
C         77.50923       93.18198       55.59130
C         78.34882       94.64966       57.81892
C         76.71662       94.22187       56.08160
C         77.13449       94.96077       57.19719
O         76.38172       95.97195       57.67514
H         79.98035       93.04278       53.20815
H         81.47851       92.84753       55.85025
H         79.85334       91.03313       56.41272
H         79.05923       91.25697       54.81754
H         80.09067       93.39453       57.81171
H         77.17572       92.63344       54.71899
H         78.67749       95.21716       58.68063
H         75.78201       94.45628       55.58813
H         75.54189       96.22507       57.26564
N         82.91355       90.88165       54.84102
C         83.69092       89.82017       54.19217
C         83.82344       88.58214       55.06790
O         83.53410       88.63196       56.25547
C         85.07500       90.34075       53.70390
C         86.02118       90.69296       54.88212
C         84.86694       91.53162       52.75549
C         87.41070       91.15239       54.43376
H         83.28776       91.32784       55.69147
H         83.14426       89.47703       53.29202
H         85.55690       89.52731       53.11709
H         86.16531       89.78339       55.50431
H         85.57979       91.48587       55.52064
H         85.82080       91.85278       52.29307
H         84.19065       91.22781       51.93445
H         84.41912       92.39699       53.28931
H         87.35761       92.11707       53.88914
H         88.05208       91.31087       55.32596
H         87.88468       90.38525       53.78525
N         84.20865       87.40559       54.49435
C         84.34513       86.13335       55.19804
C         85.70430       85.50672       54.89800
O         86.50450       86.11841       54.20822
C         83.20583       85.20061       54.74712
O         83.30074       84.93211       53.37450
H         84.35986       87.39600       53.47547
H         84.24300       86.27248       56.29664
H         82.23103       85.69048       54.96438
H         83.24817       84.25029       55.32427
H         82.67618       84.18192       53.19486
N         86.01968       84.26214       55.35749
C         87.26059       83.56648       55.01788
C         87.38863       83.36302       53.51542
O         88.41531       83.71805       52.95419
C         87.30610       82.19856       55.71042
H         85.33639       83.77384       55.95549
H         88.13128       84.15239       55.38910
H         88.25832       81.67892       55.46752
H         87.25220       82.32923       56.81186
H         86.45803       81.55825       55.38539
N         86.36840       82.80406       52.80287
C         86.41892       82.54363       51.36476
C         86.77388       83.78606       50.57402
O         87.69260       83.73011       49.76811
C         85.06671       82.00502       50.87966
H         85.50449       82.56146       53.31267
H         87.18470       81.76217       51.16022
H         84.81459       81.06627       51.41652
H         84.25847       82.74671       51.05991
H         85.11003       81.78364       49.79123
N         86.09867       84.95090       50.77206
C         86.39016       86.18250       50.04083
C         87.85406       86.55642       50.20655
O         88.53988       86.71002       49.20547
C         85.46931       87.33320       50.50762
C         83.98361       87.02545       50.22554
C         83.08146       88.13705       50.67071
O         82.11379       87.89661       51.57587
O         83.19714       89.25344       50.19632
H         85.36778       84.95641       51.49776
H         86.19323       86.02167       48.95654
H         85.74588       88.25906       49.95531
H         85.62628       87.51866       51.58984
H         83.66680       86.10420       50.75427
H         83.83948       86.86510       49.13590
N         88.40952       86.65754       51.44514
C         89.81250       86.93127       51.68121
H         90.37722       87.09874       50.74049
H         89.91091       87.83174       52.32146
H         90.26756       86.06590       52.20965
H         87.82011       86.49225       52.26730
Ca        80.72425       91.21531       49.87593
O         79.15424       88.44084       50.65700
H         78.93718       87.82473       49.91320
H         78.66549       88.07046       51.43415

Ca 1.0



