%chk=holoCaM-CaMKII.loop1.water2.frame265.chk
%nprocshared=20
%mem=10GB
%nosave
#b3lyp/svp scf=(tight,noincore,xqc) Test 
#IOP(5/87=12) Density=Current Pop=(MK,readradii) iop(6/33=2) iop(6/42=6)

holoCaM-CaMKII.loop1.water2.frame265 

   0  1 
C         69.07548      115.02198       37.50607
C         69.97189      115.40686       36.37064
O         69.51414      115.49225       35.24290
H         68.03755      114.85159       37.15114
H         69.45425      114.08185       37.96223
H         69.07573      115.82450       38.27211
N         71.28651      115.64958       36.60786
C         72.25413      115.94430       35.55795
C         72.38853      114.71467       34.66670
O         72.73805      113.66459       35.18962
C         73.60202      116.27396       36.23319
C         74.70459      116.66722       35.30775
O         74.47551      116.94613       34.01410
O         75.82186      116.82183       35.76648
H         71.61109      115.60112       37.58702
H         71.91119      116.83343       34.98214
H         73.93609      115.37701       36.79815
H         73.46634      117.10849       36.95576
N         72.11016      114.75651       33.32807
C         72.12590      113.56057       32.47880
C         73.31298      113.52293       31.52495
O         73.53943      112.47466       30.93598
C         70.79058      113.38881       31.70924
C         69.52124      113.54150       32.57449
C         69.48748      112.69359       33.85524
C         69.49135      111.18455       33.60732
N         69.59498      110.46826       34.87903
H         71.85457      115.65739       32.91591
H         72.25687      112.66711       33.12480
H         70.78913      112.39415       31.21355
H         70.72375      114.15646       30.90621
H         68.62273      113.33272       31.95335
H         69.46128      114.60051       32.88327
H         68.57449      112.95716       34.43300
H         70.35446      112.95785       34.48580
H         70.35587      110.89902       32.97175
H         68.55325      110.89757       33.08290
H         68.81260      110.73906       35.51820
H         69.55519      109.43957       34.70133
H         70.51008      110.69424       35.33512
N         74.13558      114.59629       31.34493
C         75.38457      114.54547       30.58709
C         76.57768      114.93178       31.46998
O         77.68093      115.03549       30.95250
C         75.27168      115.37656       29.29261
C         74.84417      116.79719       29.49417
O         73.81642      117.19565       28.97205
O         75.59497      117.64462       30.21620
H         73.89647      115.49479       31.78737
H         75.59971      113.51216       30.23515
H         74.52128      114.87936       28.63740
H         76.24226      115.35792       28.75049
N         76.45249      115.05461       32.82697
C         77.57343      115.25645       33.73426
C         78.21174      116.63837       33.72914
O         79.16204      116.80709       34.48046
H         75.54384      114.86537       33.26866
H         78.34705      114.48917       33.51745
H         77.22470      115.06263       34.76989
N         77.79648      117.66506       32.92870
C         78.52895      118.93579       32.86299
C         78.47500      119.78953       34.13467
O         79.28612      120.69948       34.23861
C         78.12710      119.76698       31.62347
C         76.68644      120.19854       31.57131
O         75.81041      119.82965       32.51974
O         76.29777      120.87166       30.63133
H         77.01232      117.50418       32.28508
H         79.59868      118.66913       32.70684
H         78.33024      119.16276       30.71335
H         78.76720      120.67485       31.58109
N         77.55903      119.58600       35.12406
C         77.53424      120.34249       36.37306
C         76.27936      121.17640       36.55234
O         76.10241      121.71388       37.63661
H         76.84371      118.86181       34.99808
H         78.40518      121.02759       36.46750
H         77.59864      119.61126       37.20697
N         75.39437      121.38035       35.53407
C         74.18548      122.18914       35.65341
C         72.96815      121.35685       35.18735
O         73.04696      121.09412       33.81446
C         74.33179      123.51387       34.85343
C         75.38888      124.44488       35.46303
O         74.61444      123.27734       33.49645
H         75.59936      120.97604       34.61543
H         74.00732      122.46258       36.71702
H         73.36835      124.06545       34.90751
H         75.54977      122.95181       33.42396
H         75.11939      124.69286       36.51162
H         76.39330      123.97189       35.45104
H         75.43397      125.38947       34.87996
N         71.69693      122.02637       35.46859
C         70.52488      121.17576       35.17224
C         69.60688      122.00764       34.30457
O         69.23308      123.10306       34.70352
C         69.81133      120.65576       36.45980
C         70.79599      119.85060       37.35257
C         68.60128      119.77646       36.06728
C         70.19909      119.43811       38.70082
H         71.65577      122.43736       36.43015
H         70.82604      120.26960       34.59504
H         69.44606      121.53459       37.03592
H         71.68145      120.47523       37.58924
H         71.15205      118.94513       36.81301
H         67.88676      120.34078       35.43568
H         68.93776      118.87944       35.50174
H         68.03076      119.44342       36.95578
H         69.34981      118.73703       38.58073
H         70.97434      118.92155       39.30488
H         69.85998      120.33755       39.25835
N         69.21121      121.54489       33.08805
C         68.38694      122.30816       32.16392
C         66.92522      121.97955       32.37431
O         66.60642      121.13634       33.20167
C         68.81214      122.00995       30.69753
C         70.28075      122.35117       30.44216
O         68.60394      120.65253       30.41387
H         69.47013      120.58719       32.82392
H         68.51352      123.39723       32.35542
H         68.18894      122.62944       30.01388
H         68.56593      120.55839       29.42605
H         70.46870      123.42650       30.63731
H         70.93996      121.73671       31.08974
H         70.53477      122.13243       29.38224
N         65.96852      122.62028       31.65862
C         64.54942      122.29369       31.74284
C         64.32154      120.86392       31.26829
O         63.68598      120.08626       31.96111
C         63.70285      123.27738       30.89358
C         63.79060      124.71190       31.42545
O         64.11851      123.26120       29.54931
H         66.27188      123.35906       31.00391
H         64.19721      122.39039       32.79587
H         62.63529      122.95971       30.97988
H         63.30863      123.16074       28.98472
H         63.44415      124.75271       32.47977
H         64.82883      125.10111       31.37581
H         63.14330      125.37636       30.81543
N         64.85263      120.46617       30.07887
C         64.67757      119.14783       29.47397
C         65.13680      118.03809       30.40196
O         64.36968      117.11811       30.65575
C         65.44940      119.13961       28.13503
C         65.24003      117.87289       27.29516
C         65.91609      117.96138       25.91097
C         65.33080      119.07878       25.02151
N         65.91295      119.05168       23.68106
H         65.42491      121.15452       29.56859
H         63.59926      119.00060       29.24307
H         66.53735      119.29357       28.31206
H         65.06254      120.00669       27.56483
H         64.15253      117.69737       27.14916
H         65.66441      117.00359       27.84301
H         65.75455      116.98825       25.39913
H         67.01150      118.11224       26.03142
H         65.53167      120.07694       25.46371
H         64.22927      118.94532       24.93977
H         65.49392      119.82453       23.11387
H         66.94753      119.19423       23.73402
H         65.70098      118.13984       23.21551
N         66.37029      118.08147       30.96841
C         66.89123      117.07091       31.88638
C         65.95665      116.91756       33.07593
O         65.48280      115.81629       33.31780
C         68.33476      117.43646       32.31659
C         69.28205      117.40094       31.09437
C         70.69774      117.77687       31.41288
O         70.98040      118.96116       31.97937
O         71.61200      117.04508       31.07532
H         66.94939      118.90145       30.75162
H         66.94179      116.08678       31.36714
H         68.69447      116.71167       33.07235
H         68.34086      118.44394       32.78704
H         68.93781      118.11127       30.32228
H         69.26661      116.38342       30.64579
N         65.59324      117.99375       33.82169
C         64.62371      117.90588       34.89237
H         63.65726      117.52538       34.49478
H         64.99054      117.22837       35.69048
H         64.44607      118.91397       35.32508
H         65.98310      118.91246       33.59420
Ca        73.41155      118.87567       33.70095
O         73.59103      122.00055       30.81916
H         73.25574      122.20413       29.91054
H         73.41587      122.82777       31.33067
O         72.45961      119.61496       29.58382
H         71.82748      119.72407       28.83046
H         73.35492      119.75075       29.18408

Ca 1.0



