%chk=holoCaM-CaMKII.loop2.water2.frame302.chk
%nprocshared=20
%mem=10GB
%nosave
#b3lyp/svp scf=(tight,noincore,xqc) Test 
#IOP(5/87=12) Density=Current Pop=(MK,readradii) iop(6/33=2) iop(6/42=6)

holoCaM-CaMKII.loop2.water2.frame302 

   -2  1 
C         62.78090       25.20586       52.11612
C         64.23968       25.54572       51.98622
O         64.60618       26.68858       52.21154
H         62.18075       25.81417       51.41016
H         62.59416       24.13050       51.90596
H         62.44628       25.41246       53.15552
N         65.13930       24.57969       51.65927
C         66.58165       24.79293       51.63721
C         67.00719       25.75138       50.52700
O         66.67809       25.49841       49.37631
C         67.29103       23.43495       51.42824
C         68.75473       23.48063       51.75736
O         69.28981       24.56106       52.35320
O         69.44902       22.49663       51.56349
H         64.78163       23.62619       51.49163
H         66.87441       25.17950       52.63810
H         67.13902       23.09858       50.37937
H         66.85276       22.66729       52.10035
N         67.79196       26.83666       50.79585
C         68.29918       27.74890       49.76974
C         69.82821       27.76000       49.68078
O         70.34432       28.46106       48.82079
C         67.81659       29.16893       50.09223
H         68.05808       27.01492       51.77181
H         67.91059       27.46114       48.76935
H         66.70853       29.20024       50.14118
H         68.22462       29.49832       51.07430
H         68.15495       29.88745       49.31465
N         70.61617       27.07772       50.56383
C         72.07050       27.23021       50.63763
C         72.86306       25.92322       50.68289
O         74.07828       26.00051       50.55808
C         72.40740       28.07350       51.89237
C         71.62524       27.63556       53.11839
O         70.91160       28.43939       53.69438
O         71.64434       26.35206       53.53141
H         70.16383       26.53500       51.30243
H         72.44971       27.77278       49.74302
H         72.13380       29.13092       51.68321
H         73.50176       28.05023       52.08765
N         72.29328       24.70962       50.91647
C         73.06036       23.47877       51.04442
C         74.14244       23.57959       52.10419
O         75.29458       23.31639       51.79023
H         71.28100       24.64154       51.04430
H         73.52130       23.22104       50.06591
H         72.36782       22.65363       51.32138
N         73.84400       23.96184       53.37830
C         74.82722       24.03177       54.45962
C         74.44279       23.09029       55.60239
O         75.05183       23.16168       56.66086
C         75.05051       25.50487       54.90932
C         73.90162       26.20340       55.58675
N         74.00936       27.49606       55.96738
O         72.86908       25.61036       55.80792
H         72.86812       24.20219       53.59710
H         75.82656       23.70227       54.10121
H         75.33225       26.09482       54.01014
H         75.90602       25.53356       55.61789
H         74.87435       28.02722       55.79689
H         73.21884       27.96744       56.43306
N         73.48022       22.13189       55.43261
C         73.08949       21.17614       56.45540
C         72.20629       21.75203       57.54337
O         71.81281       20.98311       58.40913
H         73.04554       22.00596       54.50900
H         73.99458       20.69607       56.88744
H         72.48656       20.37705       55.97132
N         71.83990       23.06779       57.57624
C         70.97474       23.63447       58.60440
C         69.77013       24.40917       57.99033
O         69.41977       23.93690       56.72012
C         71.79081       24.58919       59.51187
C         72.90808       23.84099       60.24537
O         72.37170       25.62189       58.75648
H         72.19585       23.70009       56.86151
H         70.57059       22.81577       59.24127
H         71.13195       25.02437       60.29811
H         71.64387       26.24613       58.50368
H         72.48322       23.02552       60.86852
H         73.63310       23.40501       59.52528
H         73.45811       24.54114       60.90945
N         68.60347       24.30646       58.88029
C         67.54584       25.29564       58.61370
C         67.96844       26.67528       59.09744
O         68.36063       26.82321       60.24692
C         66.21507       24.81785       59.27813
C         65.74935       23.50453       58.58724
C         65.11794       25.89851       59.18014
C         64.47065       22.89417       59.16451
H         68.87753       24.35418       59.88992
H         67.34017       25.34967       57.52363
H         66.39830       24.62620       60.35891
H         66.55013       22.73999       58.67821
H         65.57629       23.69597       57.50562
H         64.88521       26.12751       58.12081
H         64.18978       25.58095       59.69447
H         65.43537       26.82638       59.69586
H         64.60002       22.67032       60.24327
H         63.59830       23.56382       59.02219
H         64.24397       21.94918       58.62629
N         67.82006       27.74819       58.27067
C         68.10215       29.12391       58.65543
C         66.79111       29.84806       58.91045
O         65.73732       29.24074       58.78706
C         68.92079       29.82234       57.54862
C         70.24443       29.15299       57.30116
O         70.29170       28.00025       56.90314
O         71.38875       29.83687       57.49072
H         67.39921       27.59826       57.34490
H         68.67449       29.15673       59.60893
H         69.11577       30.87539       57.84059
H         68.34110       29.83261       56.60000
N         66.77754       31.14259       59.33057
C         65.54785       31.83150       59.70005
C         64.54238       31.92771       58.55255
O         63.42563       31.47420       58.76260
C         65.84655       33.22094       60.30200
C         64.58275       33.89801       60.78494
C         63.81149       33.32235       61.81242
C         64.15904       35.10697       60.20759
C         62.63739       33.94292       62.24740
C         62.98333       35.72425       60.64666
C         62.22295       35.14252       61.66466
H         67.67635       31.63393       59.45174
H         65.07701       31.23643       60.51487
H         66.36404       33.85059       59.55424
H         66.53766       33.11052       61.16560
H         64.11573       32.39360       62.27796
H         64.73335       35.56873       59.41429
H         62.04849       33.49248       63.03624
H         62.66026       36.65345       60.19600
H         61.31277       35.62091       62.00231
N         64.80682       32.49706       57.33088
C         63.78333       32.65319       56.30538
C         63.36785       31.33019       55.68690
O         62.39436       31.31528       54.94562
C         64.43960       33.59030       55.28743
C         65.89288       33.16926       55.37607
C         66.08302       33.01955       56.88609
H         62.87891       33.14566       56.72707
H         63.98830       33.58475       54.27181
H         64.38977       34.62926       55.68628
H         65.97578       32.16186       54.90590
H         66.62423       33.84570       54.88586
H         66.93118       32.32592       57.06029
H         66.26000       34.00390       57.36428
N         64.06594       30.18548       55.91872
C         63.66753       28.89512       55.38226
C         62.49728       28.38076       56.19473
O         61.44162       28.12781       55.63263
C         64.85208       27.90852       55.41532
C         66.04059       28.44834       54.59252
C         67.21513       27.51836       54.57791
O         68.24595       27.87057       54.03389
O         67.15914       26.31013       55.16522
H         64.92558       30.22995       56.48164
H         63.38452       29.00111       54.30959
H         64.52159       26.93290       54.99542
H         65.18377       27.74858       56.46075
H         66.38964       29.40778       55.02528
H         65.72661       28.63916       53.54426
N         62.61960       28.24041       57.54660
C         61.55129       27.80495       58.42055
H         60.61665       27.57915       57.86778
H         61.87330       26.89499       58.96870
H         61.33899       28.60703       59.15980
H         63.51445       28.47562       57.99490
Ca        70.31889       25.41411       55.17298
O         70.39462       22.38046       54.51515
H         70.83885       23.02569       53.91107
H         70.55533       21.49951       54.09522
O         67.45837       23.47377       54.69639
H         67.40498       22.49476       54.56564
H         66.92881       23.64503       55.51367

Ca 1.0



