%chk=holoCaM.loop3.water2.frame265.chk
%nprocshared=20
%mem=10GB
%nosave
#b3lyp/svp scf=(tight,noincore,xqc) Test 
#IOP(5/87=12) Density=Current Pop=(MK,readradii) iop(6/33=2) iop(6/42=6)

holoCaM.loop3.water2.frame265 

   0  1 
C         46.69291       -1.32866       77.50266
C         46.58064       -2.04656       76.19597
O         47.58567       -2.56387       75.72694
H         47.42608       -0.50188       77.40478
H         45.71484       -0.91260       77.81993
H         47.04586       -2.04133       78.27837
N         45.38105       -2.15316       75.55591
C         45.25322       -2.91352       74.32693
C         46.00431       -2.21861       73.19038
O         45.64292       -1.11320       72.81092
C         43.78031       -3.11353       73.93817
C         43.67202       -4.13187       72.85068
O         44.73684       -4.88016       72.50987
O         42.60641       -4.31829       72.29810
H         44.53881       -1.74431       75.98908
H         45.67769       -3.92208       74.54397
H         43.35115       -2.14316       73.60651
H         43.17806       -3.48542       74.79369
N         47.10224       -2.80552       72.64842
C         47.98681       -2.15654       71.68354
C         47.41267       -2.06394       70.26589
O         47.86632       -1.20492       69.52320
C         49.34560       -2.88756       71.70601
C         50.49697       -2.13790       71.03292
C         51.80582       -2.91565       71.25511
C         53.05383       -2.16752       70.76845
N         53.03521       -1.92648       69.32656
H         47.39548       -3.69148       73.07022
H         48.16596       -1.12715       72.06730
H         49.24106       -3.89972       71.26207
H         49.63100       -3.00323       72.77638
H         50.58834       -1.13339       71.50076
H         50.29448       -2.02159       69.94870
H         51.74067       -3.90888       70.75867
H         51.94108       -3.08634       72.34672
H         53.94314       -2.78739       71.02032
H         53.14682       -1.20050       71.31107
H         53.94290       -1.48897       69.04826
H         52.92118       -2.82944       68.81170
H         52.26453       -1.26792       69.07466
N         46.45359       -2.92321       69.80371
C         45.86600       -2.84317       68.45898
C         44.36081       -2.57564       68.51593
O         43.75028       -2.47841       67.46008
C         46.26794       -4.07331       67.59906
C         45.99182       -5.39060       68.24962
O         46.92271       -6.08515       68.62631
O         44.74164       -5.78298       68.51595
H         46.11805       -3.67140       70.42689
H         46.27879       -1.97317       67.90274
H         47.36737       -4.00857       67.44300
H         45.78887       -4.03672       66.59651
N         43.71578       -2.32740       69.69732
C         42.34788       -1.83575       69.77294
C         41.26070       -2.81576       69.38897
O         40.11173       -2.39394       69.39422
H         44.23643       -2.35431       70.58345
H         42.26607       -0.93082       69.13031
H         42.13877       -1.51785       70.81773
N         41.50075       -4.11722       69.04999
C         40.41656       -5.00879       68.63011
C         39.42631       -5.34228       69.75712
O         38.42747       -5.98570       69.47155
C         40.97751       -6.29547       67.97628
C         41.49026       -7.31503       68.96342
N         41.04949       -8.59355       68.93159
O         42.31011       -6.99083       69.79876
H         42.47139       -4.45848       69.02801
H         39.87559       -4.47358       67.81682
H         41.79207       -6.00734       67.27496
H         40.17880       -6.77061       67.36793
H         40.36469       -8.90211       68.22716
H         41.41063       -9.28485       69.60588
N         39.64807       -4.95921       71.05404
C         38.74532       -5.23320       72.16549
C         39.36836       -6.08995       73.26501
O         38.68601       -6.32332       74.25350
H         40.48950       -4.42692       71.28415
H         37.82661       -5.75145       71.81577
H         38.43654       -4.25928       72.60122
N         40.60799       -6.65190       73.14676
C         41.15997       -7.63512       74.08586
C         42.59414       -7.31904       74.47884
O         43.38856       -7.00549       73.60489
C         41.13123       -8.99743       73.37590
C         39.71243       -9.48821       73.26236
C         39.01104       -9.41410       72.04990
C         39.07593      -10.01919       74.39647
C         37.68877       -9.86343       71.97551
C         37.76207      -10.48218       74.31682
C         37.06211      -10.40396       73.10490
O         35.79123      -10.84397       73.01532
H         41.14252       -6.48876       72.28095
H         40.55454       -7.72239       75.01574
H         41.71251       -9.76517       73.93277
H         41.59991       -8.88314       72.37305
H         39.47839       -8.99248       71.17091
H         39.60489      -10.08541       75.33996
H         37.15101       -9.79153       71.03897
H         37.29092      -10.89991       75.19769
H         35.32835      -11.23163       73.77202
N         43.02810       -7.52258       75.76261
C         44.41742       -7.33276       76.18426
C         45.06428       -8.70133       76.39016
O         44.65838       -9.42615       77.28936
C         44.49697       -6.50573       77.50927
C         43.72948       -5.16529       77.41131
C         45.97008       -6.26847       77.90976
C         43.62622       -4.43250       78.75504
H         42.36174       -7.89831       76.45561
H         44.97621       -6.78817       75.38987
H         44.00464       -7.10698       78.30691
H         42.68674       -5.36469       77.08489
H         44.21191       -4.50467       76.66423
H         46.05095       -5.77202       78.89631
H         46.51441       -7.22658       78.01067
H         46.48660       -5.64620       77.14760
H         44.61894       -4.11832       79.13400
H         43.01214       -3.51612       78.63421
H         43.13702       -5.08477       79.51115
N         46.07466       -9.12345       75.57625
C         46.75898      -10.40844       75.74051
C         47.74068      -10.36572       76.90415
O         47.91038       -9.31965       77.51089
C         47.54520      -10.75862       74.46456
O         46.68153      -10.79853       73.36144
H         46.33603       -8.52128       74.78523
H         45.99925      -11.20599       75.89457
H         48.03773      -11.74890       74.55645
H         48.34763      -10.00756       74.31562
H         47.10498      -10.26498       72.63890
N         48.45013      -11.47697       77.25604
C         49.48634      -11.45814       78.28332
C         50.69679      -10.67281       77.80598
O         51.05903       -9.69592       78.44658
C         49.91537      -12.88312       78.64944
H         48.24377      -12.36633       76.77623
H         49.07159      -11.00311       79.21147
H         50.69085      -12.85196       79.44528
H         49.04106      -13.44777       79.03599
H         50.32493      -13.42455       77.77127
N         51.38233      -11.05777       76.68605
C         52.56970      -10.35494       76.20064
C         52.26328       -8.92009       75.82243
O         53.17591       -8.10643       75.77791
C         53.15480      -11.06939       74.97410
H         51.05213      -11.88670       76.16826
H         53.33004      -10.36144       77.01194
H         52.41313      -11.08217       74.14425
H         54.07254      -10.55350       74.61839
H         53.41736      -12.11762       75.22866
N         51.00540       -8.56181       75.45499
C         50.64161       -7.21959       75.03379
C         50.69531       -6.29141       76.23364
O         51.39695       -5.29138       76.18755
C         49.26352       -7.29332       74.34701
C         48.91822       -6.08727       73.47283
C         47.73736       -6.38892       72.57002
O         47.42629       -5.60441       71.69284
O         47.06274       -7.55005       72.65956
H         50.27977       -9.29220       75.42588
H         51.36007       -6.89154       74.24886
H         48.45690       -7.51913       75.07727
H         49.34682       -8.13583       73.62686
H         49.78376       -5.88615       72.80537
H         48.73983       -5.19158       74.10319
N         50.03112       -6.62332       77.37807
C         50.10546       -5.87156       78.61446
H         50.73297       -4.96158       78.52210
H         49.08403       -5.57700       78.93258
H         50.54645       -6.51876       79.40459
H         49.47696       -7.48730       77.39581
Ca        44.58607       -6.11925       70.69585
O         44.44758       -9.37664       72.00296
H         43.77372       -9.87026       72.53179
H         44.92034      -10.08475       71.49908
O         45.22992       -8.89431       69.00623
H         46.02691       -9.48090       68.97096
H         44.46887       -9.51528       69.13200

Ca 1.0



