%chk=holoCaM-CaMKII.loop3.water2.frame232.chk
%nprocshared=20
%mem=10GB
%nosave
#b3lyp/svp scf=(tight,noincore,xqc) Test 
#IOP(5/87=12) Density=Current Pop=(MK,readradii) iop(6/33=2) iop(6/42=6)

holoCaM-CaMKII.loop3.water2.frame232 

   0  1 
C         79.99125       33.58833       31.30398
C         80.63538       34.04855       30.03397
O         81.73665       33.61484       29.73184
H         79.02572       33.09361       31.06671
H         80.64388       32.86443       31.83630
H         79.80448       34.46192       31.96230
N         79.97537       34.91758       29.22036
C         80.50832       35.38668       27.94559
C         81.70910       36.28878       28.22189
O         81.52510       37.43531       28.60784
C         79.36994       36.10971       27.19566
C         79.55422       36.45456       25.74781
O         78.63750       37.04321       25.19897
O         80.63983       36.13635       25.01193
H         79.03076       35.21702       29.51136
H         80.79312       34.48749       27.35642
H         79.11303       37.03889       27.75125
H         78.47587       35.44819       27.21697
N         82.96865       35.76891       28.20729
C         84.14757       36.49713       28.66631
C         84.47112       37.64986       27.73285
O         84.40210       38.79162       28.16654
C         85.31493       35.49830       28.87111
C         86.53562       36.07525       29.60839
C         87.45857       34.92497       30.06611
C         88.64540       35.38038       30.93117
N         89.63685       36.13573       30.16740
H         83.06868       34.77433       27.96943
H         83.91233       36.90125       29.67734
H         85.63537       35.03651       27.91330
H         84.90245       34.68835       29.51412
H         86.18636       36.60657       30.51999
H         87.06677       36.79678       28.95233
H         87.82708       34.34089       29.19484
H         86.85288       34.24210       30.70306
H         89.14005       34.47247       31.34435
H         88.27942       35.98441       31.79137
H         90.43049       36.38484       30.80154
H         90.00728       35.54529       29.38734
H         89.22307       37.01542       29.78736
N         84.82604       37.43110       26.43420
C         85.11588       38.52349       25.50368
C         83.85396       39.21190       24.97772
O         83.99143       40.20479       24.27619
C         86.03713       38.04349       24.36198
C         85.46186       36.91019       23.56884
O         84.31372       37.07535       22.89496
O         86.03899       35.83531       23.52977
H         84.92192       36.45677       26.11348
H         85.71085       39.29384       26.04318
H         86.99937       37.71226       24.81086
H         86.26076       38.88863       23.67492
N         82.59866       38.77017       25.28204
C         81.38943       39.46204       24.86354
C         81.20856       39.48641       23.36296
O         81.09944       40.56906       22.80495
H         82.47741       37.93472       25.86979
H         81.40170       40.49767       25.26882
H         80.50829       38.95398       25.30289
N         81.12928       38.32492       22.65076
C         80.87922       38.26949       21.21172
C         79.56363       37.56356       20.87975
O         79.20803       37.52468       19.71027
C         82.08564       37.62913       20.49254
C         82.23485       36.13530       20.70624
N         82.34109       35.30239       19.64498
O         82.28337       35.67126       21.83452
H         81.24828       37.44222       23.15630
H         80.78960       39.30594       20.81915
H         83.00428       38.14717       20.84255
H         81.99815       37.82640       19.40242
H         82.32430       35.66507       18.68088
H         82.46212       34.28869       19.78771
N         78.78124       37.00501       21.85298
C         77.48185       36.39888       21.61577
C         77.41971       34.93302       21.99811
O         76.33502       34.37700       21.89185
H         79.08819       37.03100       22.82855
H         77.18143       36.48182       20.54873
H         76.73304       36.95468       22.21984
N         78.52321       34.21663       22.37677
C         78.48889       32.76497       22.57252
C         79.16476       32.32750       23.86697
O         79.82959       33.12596       24.51337
C         79.23492       32.12658       21.38472
C         78.58034       32.48251       20.07121
C         77.42272       31.81189       19.64716
C         79.11660       33.50141       19.26589
C         76.81947       32.14782       18.43008
C         78.50408       33.84774       18.05948
C         77.35440       33.16764       17.63447
O         76.75622       33.48602       16.46875
H         79.44290       34.68174       22.40577
H         77.43985       32.39529       22.59253
H         79.31702       31.02128       21.46917
H         80.26919       32.53389       21.39855
H         76.99629       31.02209       20.25275
H         79.99653       34.04181       19.58215
H         75.93386       31.61626       18.10583
H         78.92350       34.64475       17.45801
H         77.09278       34.18743       15.89263
N         79.03472       31.03179       24.28515
C         79.74752       30.44357       25.42073
C         80.42699       29.16805       24.93186
O         79.74314       28.32600       24.36352
C         78.79362       30.08688       26.60146
C         77.93050       31.30274       27.02300
C         79.63849       29.57851       27.79781
C         76.91897       30.97127       28.12671
H         78.39694       30.41781       23.75398
H         80.49442       31.16408       25.82188
H         78.10250       29.27899       26.27253
H         77.34317       31.64444       26.14444
H         78.57795       32.14238       27.35882
H         80.31915       30.38093       28.16054
H         79.00569       29.24238       28.64120
H         80.25694       28.70324       27.51453
H         77.42136       30.70459       29.07832
H         76.28322       31.85803       28.32831
H         76.26451       30.13072       27.81020
N         81.74722       28.92839       25.16352
C         82.43032       27.71321       24.72655
C         82.83979       26.85217       25.91386
O         82.58789       27.22391       27.05100
C         83.63995       28.09847       23.85776
O         84.58397       28.82344       24.60256
H         82.28632       29.61952       25.69708
H         81.75494       27.08765       24.10336
H         83.29293       28.68177       22.97273
H         84.13916       27.19657       23.44866
H         84.46689       29.78137       24.37184
N         83.46701       25.65862       25.70338
C         83.89754       24.75419       26.76815
C         84.87225       25.43240       27.70479
O         84.68931       25.34969       28.91055
C         84.55942       23.50856       26.16915
H         83.64807       25.37553       24.72826
H         83.01138       24.40849       27.34705
H         85.45728       23.78284       25.57509
H         84.86461       22.81240       26.98027
H         83.84007       22.97884       25.50922
N         85.92473       26.14126       27.21114
C         86.86645       26.86645       28.05502
C         86.14939       27.89184       28.91485
O         86.32060       27.87315       30.12605
C         87.91584       27.57273       27.18631
H         86.03988       26.18982       26.18659
H         87.40529       26.14610       28.71070
H         88.46815       26.82633       26.57681
H         87.43825       28.30503       26.50001
H         88.64683       28.10967       27.82820
N         85.32643       28.82068       28.34831
C         84.66465       29.87429       29.11902
C         83.65742       29.33096       30.13306
O         83.19887       30.10598       30.96117
C         83.91814       30.85286       28.18765
C         84.81874       31.52977       27.13501
C         83.98931       32.41186       26.24935
O         84.24365       33.72487       26.16103
O         83.05315       31.94859       25.62026
H         85.19625       28.78146       27.32785
H         85.45413       30.43453       29.66784
H         83.43908       31.64919       28.79921
H         83.11282       30.28489       27.67715
H         85.31928       30.78309       26.49013
H         85.60111       32.13171       27.64577
N         83.23574       28.03443       30.10842
C         82.27761       27.47357       31.03874
H         81.38923       27.11452       30.47700
H         82.73972       26.60941       31.56122
H         81.94253       28.20761       31.80002
H         83.58253       27.40430       29.38196
Ca        82.52989       34.97903       25.41035
O         82.63332       31.64993       22.27589
H         82.72624       31.84577       21.30939
H         81.96535       30.92029       22.31722
O         84.88022       33.69384       21.76660
H         84.95269       33.12705       20.95846
H         84.90898       34.61989       21.41861

Ca 1.0



