%chk=holoCaM.loop2.water2.frame135.chk
%nprocshared=20
%mem=10GB
%nosave
#b3lyp/svp scf=(tight,noincore,xqc) Test 
#IOP(5/87=12) Density=Current Pop=(MK,readradii) iop(6/33=2) iop(6/42=6)

holoCaM.loop2.water2.frame135 

   -2  1 
C         12.03846       96.20401       -2.18095
C         12.58432       94.85774       -1.77770
O         13.17503       94.74594       -0.71550
H         11.29980       96.54669       -1.42430
H         12.85531       96.94929       -2.25720
H         11.51497       96.15615       -3.16114
N         12.37048       93.77494       -2.57070
C         12.72557       92.40301       -2.21377
C         14.22464       92.12303       -2.21750
O         14.86401       92.36094       -3.23302
C         12.04769       91.45255       -3.21819
C         12.31832       90.02360       -2.87674
O         12.84945       89.28887       -3.69314
O         12.00587       89.56021       -1.65373
H         11.83712       93.92694       -3.44177
H         12.29955       92.17723       -1.21167
H         12.40168       91.66690       -4.25142
H         10.95053       91.61705       -3.18919
N         14.82211       91.51062       -1.14466
C         16.21756       91.06641       -1.14641
C         16.40141       89.55934       -0.87848
O         17.53844       89.11690       -0.96869
C         16.99691       91.86465       -0.09699
H         14.26106       91.34036       -0.29756
H         16.67737       91.27474       -2.13679
H         16.91974       92.95159       -0.31180
H         16.59033       91.67032        0.91909
H         18.07265       91.58523       -0.11124
N         15.38323       88.72107       -0.50132
C         15.58992       87.30262       -0.14371
C         14.67666       86.31924       -0.88790
O         14.84410       85.12436       -0.68186
C         15.44825       87.11251        1.38745
C         14.22327       87.78911        1.91215
O         13.02498       87.54613        1.36296
O         14.33646       88.69723        2.72102
H         14.44016       89.11315       -0.37947
H         16.62371       86.98359       -0.39876
H         16.32740       87.57994        1.88340
H         15.45006       86.03409        1.65525
N         13.72522       86.71164       -1.77989
C         12.93315       85.76989       -2.56589
C         11.92920       84.92258       -1.79377
O         11.31315       84.07451       -2.42450
H         13.61178       87.70832       -1.97674
H         13.63139       85.09712       -3.10902
H         12.35348       86.33523       -3.32829
N         11.67839       85.08544       -0.46109
C         10.70888       84.27503        0.28441
C          9.24165       84.49073       -0.12818
O          8.37836       83.86837        0.47599
C         10.87943       84.46742        1.81477
C         10.55036       85.82891        2.37269
N         10.58089       86.01896        3.71103
O         10.24977       86.75592        1.63889
H         12.22240       85.78095        0.05350
H         10.95505       83.20495        0.10645
H         11.92614       84.22184        2.09818
H         10.21633       83.73487        2.32433
H         10.83040       85.24841        4.34799
H         10.33622       86.93034        4.11612
N          8.87663       85.31227       -1.15561
C          7.50683       85.47383       -1.61477
C          6.70314       86.49547       -0.83711
O          5.57683       86.74285       -1.24527
H          9.59315       85.77983       -1.71640
H          6.99024       84.48880       -1.65473
H          7.54396       85.85834       -2.65695
N          7.18217       87.12929        0.27559
C          6.41357       88.13741        1.00524
C          7.24610       89.37085        1.34357
O          8.46324       89.35288        1.22571
C          5.83993       87.53395        2.31155
C          4.89320       86.35605        2.04147
O          6.86773       87.15449        3.19532
H          8.09790       86.85979        0.64425
H          5.55923       88.47758        0.37882
H          5.23251       88.31278        2.82090
H          7.34503       86.37988        2.79900
H          4.05842       86.68001        1.38365
H          5.42991       85.51598        1.55196
H          4.46722       85.98974        2.99869
N          6.61698       90.48464        1.81305
C          7.30113       91.67343        2.31177
C          7.69338       91.44366        3.76232
O          6.85105       91.05152        4.55817
C          6.38916       92.93312        2.14018
C          6.24446       93.24615        0.62479
C          6.96010       94.15513        2.89198
C          5.28994       94.39782        0.30284
H          5.58696       90.46703        1.87219
H          8.21693       91.87697        1.71735
H          5.38967       92.71759        2.57938
H          5.86151       92.34667        0.09792
H          7.24431       93.49184        0.20100
H          7.02218       93.94624        3.97842
H          7.96738       94.42213        2.51150
H          6.29291       95.03467        2.80532
H          5.64203       95.35834        0.72948
H          5.23852       94.53048       -0.79871
H          4.27249       94.17099        0.68316
N          8.94964       91.76776        4.18422
C          9.39478       91.69558        5.57151
C          9.42483       93.09385        6.15821
O          9.10874       94.03889        5.45656
C         10.79227       91.04673        5.64794
C         10.79268       89.64002        5.13127
O         10.49026       89.40999        3.97224
O         11.14962       88.62605        5.94267
H          9.59905       92.18638        3.50745
H          8.67674       91.10655        6.18378
H         11.14010       91.02669        6.70205
H         11.51999       91.64707        5.05783
N          9.73627       93.30075        7.46567
C          9.66962       94.61590        8.09406
C         10.64667       95.63441        7.49519
O         10.16906       96.68498        7.09174
C          9.84421       94.49865        9.62065
C          9.61192       95.82363       10.30990
C          8.36545       96.47221       10.21060
C         10.63725       96.42387       11.05807
C          8.15557       97.70049       10.84161
C         10.42100       97.65205       11.69082
C          9.18241       98.29035       11.58138
H          9.96160       92.48174        8.05158
H          8.63658       94.99521        7.92985
H         10.85168       94.10039        9.85403
H          9.10204       93.77188       10.01725
H          7.55387       96.03169        9.64552
H         11.60333       95.94381       11.15000
H          7.19571       98.19404       10.75673
H         11.21485       98.10982       12.26572
H          9.01732       99.24135       12.07041
N         12.00254       95.43991        7.39293
C         12.91956       96.44024        6.84821
C         12.59752       96.78316        5.40272
O         12.72440       97.94348        5.03583
C         14.30473       95.80823        7.04220
C         14.01480       94.32577        6.97818
C         12.71059       94.22996        7.76527
H         12.90165       97.38835        7.43133
H         15.10428       96.18452        6.36791
H         14.62223       96.00561        8.09188
H         13.81524       94.06387        5.91692
H         14.82567       93.66460        7.35183
H         12.20690       93.29187        7.46674
H         12.90416       94.25484        8.85955
N         12.09643       95.85120        4.55017
C         11.67628       96.15605        3.18445
C         10.55547       97.18009        3.20188
O         10.65577       98.19023        2.52102
C         11.18201       94.88350        2.47547
C         12.28539       93.82200        2.37036
C         11.79380       92.55256        1.75697
O         10.65999       92.43853        1.32447
O         12.60789       91.49538        1.76729
H         11.96142       94.89632        4.90875
H         12.53706       96.55022        2.59827
H         10.83582       95.14018        1.44944
H         10.32613       94.45941        3.04217
H         12.64925       93.54916        3.38047
H         13.15134       94.20485        1.79225
N          9.46459       96.97984        3.99159
C          8.34163       97.88492        4.08828
H          7.40885       97.32893        3.85581
H          8.27327       98.26943        5.12825
H          8.43012       98.74264        3.39182
H          9.43499       96.14825        4.58542
Ca        11.86114       89.42835        1.40253
O          9.73496       88.20658       -1.29714
H          9.90287       88.07904       -2.26476
H          9.00158       88.86707       -1.26330
O          9.02909       91.51488       -1.04500
H          8.91001       92.14908       -1.79503
H         10.00925       91.44889       -0.92994

Ca 1.0



