%chk=holoCaM-CaMKII.loop1.water2.frame180.chk
%nprocshared=20
%mem=10GB
%nosave
#b3lyp/svp scf=(tight,noincore,xqc) Test 
#IOP(5/87=12) Density=Current Pop=(MK,readradii) iop(6/33=2) iop(6/42=6)

holoCaM-CaMKII.loop1.water2.frame180 

   0  1 
C         98.75437       66.48574       14.11278
C         99.04204       67.94751       13.93646
O         99.51788       68.57695       14.86571
H         97.67434       66.29770       13.93377
H         99.35070       65.89781       13.38320
H         99.01042       66.15066       15.14007
N         98.79707       68.53650       12.73507
C         99.02849       69.94587       12.41302
C         97.90258       70.82829       12.98182
O         97.11371       71.35717       12.20999
C         99.13108       70.04275       10.86709
C         99.44443       71.41906       10.36907
O        100.57983       72.03095       10.74328
O         98.68746       71.97202        9.58938
H         98.46657       67.91415       11.97943
H        100.01608       70.27189       12.80614
H         98.18317       69.68841       10.40405
H         99.95072       69.37425       10.52186
N         97.74139       71.00703       14.32826
C         96.59203       71.70853       14.90422
C         96.70426       73.23083       14.84677
O         95.73816       73.88640       15.21229
C         96.35394       71.27955       16.36749
C         96.16472       69.76036       16.51639
C         95.78464       69.40476       17.95639
C         95.69314       67.88645       18.14808
N         95.27926       67.56132       19.51234
H         98.40594       70.56741       14.97056
H         95.68440       71.39871       14.33796
H         95.42942       71.78307       16.72884
H         97.20520       71.60757       17.00425
H         97.10660       69.23753       16.24821
H         95.35862       69.40895       15.83504
H         94.80231       69.87039       18.19304
H         96.54959       69.80727       18.65570
H         96.68958       67.43241       17.94665
H         94.95951       67.45614       17.43074
H         95.26191       66.52249       19.62757
H         95.95229       67.96843       20.20186
H         94.32009       67.93815       19.69219
N         97.82423       73.86708       14.39871
C         97.92585       75.32489       14.26200
C         97.93398       75.72985       12.79454
O         97.93383       76.92195       12.51979
C         99.15316       75.87647       15.02474
C        100.39042       75.12202       14.66500
O        100.97259       74.48175       15.52719
O        100.76332       74.98685       13.38107
H         98.62397       73.29774       14.08590
H         97.02979       75.82472       14.68868
H         98.97941       75.75352       16.11704
H         99.28868       76.96011       14.82217
N         97.86876       74.80259       11.79721
C         97.69440       75.14370       10.40356
C         98.84613       75.91492        9.82172
O         98.60544       76.98130        9.27351
H         97.86737       73.79907       12.01571
H         96.74558       75.71154       10.28385
H         97.58781       74.20847        9.81777
N        100.11304       75.40598        9.83485
C        101.20966       76.01720        9.08703
C        101.67717       75.11701        7.94228
O        102.45485       75.58825        7.12477
C        102.36005       76.46453       10.01274
C        103.05283       75.34832       10.74210
O        103.12124       75.36272       12.08554
O        103.61520       74.46167       10.12344
H        100.28514       74.52567       10.34071
H        100.84249       76.94176        8.59126
H        101.95547       77.18618       10.75600
H        103.12102       76.99830        9.40397
N        101.22949       73.83265        7.79514
C        101.51893       72.99669        6.64221
C        102.35751       71.78108        6.96802
O        102.47103       70.92792        6.09823
H        100.61407       73.41308        8.50008
H        102.03932       73.55702        5.83665
H        100.54186       72.66109        6.23190
N        103.05029       71.66144        8.13908
C        103.95940       70.54908        8.41212
C        103.71148       69.93710        9.78024
O        102.91332       70.45072       10.55272
C        105.42724       71.03859        8.31023
C        105.77335       71.47805        6.88371
O        105.63689       72.10530        9.19955
H        103.00826       72.42646        8.82541
H        103.81496       69.73614        7.66618
H        106.10526       70.19355        8.56936
H        106.61767       72.18892        9.32819
H        105.14259       72.33330        6.56397
H        106.83841       71.78843        6.83450
H        105.62500       70.63142        6.17948
N        104.39309       68.81195       10.13624
C        104.30491       68.16754       11.43942
C        105.71229       68.11157       12.01956
O        106.60823       67.61831       11.34587
C        103.70296       66.73549       11.30995
C        102.34196       66.77234       10.56429
C        103.53675       66.11123       12.71385
C        101.74349       65.38526       10.31263
H        105.01774       68.37763        9.43837
H        103.63318       68.74013       12.11681
H        104.40388       66.10880       10.71456
H        102.49037       67.23418        9.56502
H        101.60935       67.39119       11.12738
H        104.50458       66.07612       13.24976
H        102.81701       66.70440       13.31972
H        103.17669       65.06560       12.65920
H        100.81348       65.48721        9.71507
H        102.46069       64.75435        9.74505
H        101.47414       64.87653       11.25967
N        105.96928       68.54678       13.28319
C        107.28349       68.45712       13.91584
C        107.28449       67.30648       14.89614
O        106.25388       66.68419       15.08125
C        107.64742       69.78680       14.63049
C        107.77502       70.96115       13.65327
O        106.72905       70.07821       15.65925
H        105.17826       68.85598       13.85784
H        108.06509       68.22587       13.15917
H        108.64432       69.67942       15.10780
H        105.93033       70.51105       15.26066
H        108.56750       70.75260       12.90482
H        106.81813       71.13116       13.12506
H        108.04365       71.88473       14.20992
N        108.41737       66.93677       15.54893
C        108.42545       65.84715       16.52180
C        107.52009       66.17415       17.69893
O        106.83472       65.28242       18.17932
C        109.85359       65.51086       17.00365
C        110.71367       64.97168       15.85060
O        110.45585       66.64394       17.57332
H        109.29138       67.44590       15.34782
H        108.03702       64.92098       16.03840
H        109.76640       64.70248       17.76823
H        111.21704       66.31706       18.12071
H        111.71845       64.68789       16.22712
H        110.24075       64.06491       15.41414
H        110.83869       65.72724       15.04784
N        107.43923       67.44499       18.18871
C        106.57224       67.81870       19.30206
C        105.11914       67.49583       18.98966
O        104.48602       66.79244       19.76422
C        106.75791       69.31747       19.63837
C        106.02300       69.70569       20.93147
C        106.37956       71.12770       21.38469
C        105.72480       71.44201       22.73834
N        106.13495       72.75563       23.23297
H        108.01567       68.17811       17.74675
H        106.89231       67.24079       20.19782
H        106.42934       69.96442       18.79407
H        107.84485       69.48945       19.80159
H        106.34018       69.00411       21.73368
H        104.92371       69.61449       20.79099
H        106.05363       71.86854       20.62178
H        107.48327       71.19940       21.50231
H        106.02962       70.67148       23.48186
H        104.61743       71.41012       22.63551
H        105.68163       72.92736       24.15967
H        107.17324       72.78177       23.35994
H        105.84067       73.50346       22.56447
N        104.54177       67.95736       17.84691
C        103.15641       67.68430       17.46457
C        102.89088       66.19139       17.38333
O        102.02476       65.70473       18.09737
C        102.84463       68.35482       16.10876
C        102.84214       69.88156       16.24719
C        102.65386       70.57775       14.93751
O        103.51497       70.54267       14.07719
O        101.56309       71.32312       14.74256
H        105.13139       68.51699       17.21296
H        102.47054       68.10999       18.23258
H        101.84037       68.04153       15.75473
H        103.59147       68.02768       15.35580
H        103.78846       70.25844       16.68591
H        102.01244       70.16273       16.93243
N        103.60084       65.40018       16.53938
C        103.38749       63.97532       16.43716
H        102.35195       63.77210       16.09315
H        104.09991       63.54248       15.70225
H        103.55933       63.49426       17.42324
H        104.32160       65.82043       15.95081
Ca       101.57078       72.92505       13.18696
O        104.27284       73.69265       14.91380
H        103.62009       74.43458       14.96778
H        105.15598       74.13962       14.93151
O        104.84914       72.67810       12.15732
H        105.70151       73.18226       12.14623
H        105.06467       71.81259       11.72889

Ca 1.0



