%chk=holoCaM-CaMKII.loop1.water2.frame12.chk
%nprocshared=20
%mem=10GB
%nosave
#b3lyp/svp scf=(tight,noincore,xqc) Test 
#IOP(5/87=12) Density=Current Pop=(MK,readradii) iop(6/33=2) iop(6/42=6)

holoCaM-CaMKII.loop1.water2.frame12 

   0  1 
C         56.97682       63.06740       15.73815
C         58.19307       63.07665       14.86145
O         58.10762       62.70484       13.70043
H         56.08853       62.70002       15.18329
H         57.15503       62.41138       16.61582
H         56.77335       64.10024       16.09524
N         59.37210       63.52655       15.36278
C         60.59209       63.62965       14.57386
C         61.10275       62.24133       14.18317
O         61.25762       61.40088       15.05698
C         61.65757       64.39143       15.39230
C         62.82027       64.87989       14.57760
O         63.81088       65.54056       15.19269
O         62.84971       64.75399       13.36604
H         59.38209       63.85634       16.34167
H         60.36726       64.25102       13.67712
H         62.01563       63.75378       16.22942
H         61.20097       65.30785       15.82549
N         61.42567       61.95632       12.88950
C         61.93603       60.65939       12.42797
C         63.41167       60.73789       12.04191
O         63.94893       59.72204       11.61248
C         61.10304       60.18900       11.20813
C         59.62634       59.89626       11.52680
C         59.47025       58.58221       12.31387
C         58.00752       58.20824       12.59846
N         57.37593       59.13020       13.54295
H         61.34849       62.71299       12.19826
H         61.88308       59.89936       13.23362
H         61.54291       59.27585       10.75007
H         61.15441       60.98073       10.43552
H         59.08527       59.76953       10.56291
H         59.17975       60.76231       12.05619
H         60.02232       58.61992       13.27455
H         59.90721       57.76649       11.69555
H         57.99727       57.18785       13.04240
H         57.42610       58.17131       11.65009
H         57.29724       60.08672       13.13290
H         56.41400       58.78396       13.76145
H         57.92805       59.16557       14.43093
N         64.14236       61.87887       12.18363
C         65.54738       62.01307       11.81634
C         66.42615       62.40601       12.99497
O         67.62728       62.51242       12.79586
C         65.65956       63.12890       10.75638
C         64.92100       62.77113        9.50858
O         63.78362       63.40664        9.17697
O         65.31696       61.85242        8.80971
H         63.68389       62.71837       12.55022
H         65.94694       61.05787       11.40790
H         66.71664       63.34146       10.48630
H         65.22312       64.05639       11.18422
N         65.91775       62.70983       14.22975
C         66.75155       63.24762       15.29673
C         67.30526       64.63853       14.98744
O         68.04666       65.15780       15.80910
H         64.91571       62.59330       14.42861
H         67.58450       62.54015       15.49889
H         66.14306       63.33488       16.22346
N         66.99034       65.30743       13.83601
C         67.50148       66.62689       13.46914
C         66.91029       67.77890       14.29262
O         67.22950       68.92099       13.99202
C         67.30962       66.85927       11.94386
C         65.89327       66.83076       11.42787
O         65.69281       66.99101       10.23528
O         64.84854       66.59791       12.24150
H         66.38378       64.84903       13.15153
H         68.60512       66.63251       13.61227
H         67.86954       66.06317       11.40402
H         67.76567       67.83368       11.66559
N         66.08321       67.57396       15.36101
C         65.54170       68.64875       16.18053
C         64.40708       69.42905       15.53721
O         63.91432       70.34161       16.18395
H         65.88085       66.62053       15.67301
H         66.36635       69.33186       16.48162
H         65.12155       68.20524       17.10887
N         63.93010       69.13967       14.29188
C         62.84460       69.87509       13.64315
C         61.73248       68.93653       13.19239
O         62.01448       67.80587       12.82047
C         63.38722       70.67274       12.43516
C         64.36195       71.77691       12.87065
O         63.98576       69.82717       11.48471
H         64.36722       68.38137       13.76130
H         62.39703       70.61856       14.33886
H         62.53160       71.18484       11.94236
H         64.87446       69.54911       11.82824
H         64.69643       72.35261       11.98229
H         63.85829       72.47360       13.57407
H         65.25445       71.34609       13.37226
N         60.43739       69.37740       13.14917
C         59.31573       68.56197       12.68415
C         58.70531       69.23810       11.46074
O         58.16768       70.32954       11.59109
C         58.25226       68.40476       13.81726
C         58.88758       67.81560       15.10386
C         57.06931       67.53422       13.34214
C         57.93946       67.82721       16.30741
H         60.23527       70.34338       13.44931
H         59.67300       67.54732       12.39998
H         57.86804       69.42032       14.06336
H         59.76171       68.43451       15.39732
H         59.24402       66.77942       14.91663
H         56.60060       67.96316       12.43539
H         57.41163       66.50243       13.11487
H         56.26777       67.48462       14.10511
H         57.59724       68.86473       16.51333
H         57.05763       67.17600       16.14765
H         58.47512       67.45148       17.20414
N         58.77675       68.65543       10.22887
C         58.20191       69.26657        9.02597
C         56.68136       69.15358        9.03017
O         56.12247       68.55656        9.93569
C         58.76893       68.59885        7.74035
C         60.28106       68.79107        7.62404
O         58.46552       67.23164        7.73545
H         59.29089       67.76702       10.14299
H         58.48933       70.34106        8.98923
H         58.30913       69.08159        6.84965
H         58.63749       66.89672        6.81689
H         60.53464       69.87177        7.61395
H         60.79251       68.30052        8.47031
H         60.64900       68.33370        6.68112
N         55.94695       69.67900        8.00977
C         54.50623       69.47495        7.85810
C         54.21787       67.99000        7.69355
O         53.37119       67.45556        8.39447
C         53.98880       70.24671        6.61514
C         52.48110       70.06744        6.40078
O         54.24719       71.61938        6.77700
H         56.44398       70.21261        7.28079
H         53.97009       69.87298        8.74946
H         54.49654       69.85863        5.69810
H         55.00446       71.85478        6.17971
H         51.91697       70.43598        7.28375
H         52.15949       70.64177        5.50620
H         52.22528       69.00058        6.22835
N         54.92189       67.27044        6.77546
C         54.72133       65.85281        6.48599
C         54.77539       65.01932        7.75362
O         53.86027       64.24761        8.00525
C         55.81250       65.40040        5.48351
C         55.60080       63.99024        4.91792
C         56.72414       63.64801        3.92541
C         56.47430       62.30610        3.22687
N         57.55868       61.99366        2.29490
H         55.66183       67.76880        6.25678
H         53.72581       65.72386        6.00642
H         56.81232       65.46628        5.96639
H         55.80274       66.10148        4.61940
H         54.62199       63.96832        4.39107
H         55.58818       63.23656        5.73483
H         57.69438       63.61340        4.46925
H         56.78425       64.43905        3.14549
H         55.51548       62.36252        2.66427
H         56.39324       61.49457        3.98282
H         57.65120       62.75034        1.57826
H         58.46023       61.89057        2.81510
H         57.34428       61.09378        1.80764
N         55.82519       65.14797        8.60594
C         55.98626       64.37131        9.83032
C         54.82067       64.60764       10.77076
O         54.15775       63.64841       11.14147
C         57.36038       64.67164       10.48688
C         58.47493       64.26853        9.50313
C         59.86981       64.30455       10.03331
O         60.47726       65.42686       10.46490
O         60.52826       63.28281        9.96427
H         56.53997       65.84311        8.36160
H         55.99295       63.28790        9.57032
H         57.45394       64.05810       11.40888
H         57.45613       65.74526       10.76122
H         58.46190       64.90351        8.60202
H         58.27962       63.22399        9.17197
N         54.47373       65.86338       11.15384
C         53.31702       66.12676       11.98123
H         52.40168       65.73693       11.48440
H         53.43714       65.64223       12.97221
H         53.19603       67.22161       12.12465
H         55.02306       66.65979       10.81682
Ca        62.69357       64.99409       10.37583
O         63.22354       68.19469        9.28252
H         63.18301       69.04134        8.77033
H         62.54381       68.30023        9.99538
O         61.90609       65.87491        7.71474
H         62.53285       66.31724        7.08929
H         61.31403       65.33017        7.13864

Ca 1.0



