%chk=holoCaM-CaMKII.loop4.water2.frame299.chk
%nprocshared=20
%mem=10GB
%nosave
#b3lyp/svp scf=(tight,noincore,xqc) Test 
#IOP(5/87=12) Density=Current Pop=(MK,readradii) iop(6/33=2) iop(6/42=6)

holoCaM-CaMKII.loop4.water2.frame299 

   -3  1 
C         45.97122       37.06546       76.08432
C         44.62504       37.46912       76.61296
O         43.67677       36.70362       76.51648
H         46.70349       37.05433       76.92047
H         45.93826       36.05590       75.62515
H         46.31203       37.79920       75.32300
N         44.48350       38.68812       77.19437
C         43.24506       39.18172       77.78513
C         42.45144       39.94871       76.73892
O         42.91679       40.96445       76.24202
C         43.62509       40.02395       79.01342
C         42.54592       40.87249       79.60809
O         42.74248       42.07223       79.67357
O         41.41934       40.37294       80.14751
H         45.31441       39.30111       77.21636
H         42.62940       38.32752       78.14644
H         44.43540       40.72642       78.71500
H         44.04261       39.35339       79.79552
N         41.24763       39.46020       76.32266
C         40.44782       40.05523       75.25383
C         39.73750       41.31543       75.74379
O         39.79038       42.32580       75.05750
C         39.40045       39.03878       74.66572
C         40.08531       37.70195       74.23943
C         38.65691       39.66843       73.46876
C         39.14042       36.67355       73.60711
H         40.92773       38.57803       76.74177
H         41.11802       40.29284       74.39656
H         38.63198       38.81686       75.42793
H         40.52388       37.20937       75.12979
H         40.90941       37.90205       73.52186
H         39.36420       39.88818       72.64137
H         37.86012       38.99411       73.09403
H         38.14196       40.60430       73.76516
H         38.26841       36.48013       74.26184
H         38.77370       37.01621       72.61933
H         39.68755       35.71988       73.44417
N         39.01152       41.30304       76.90253
C         38.09128       42.37425       77.30710
C         38.61834       43.31030       78.39867
O         37.87161       44.18234       78.82201
C         36.71488       41.76520       77.66782
C         36.71298       40.85773       78.87219
O         37.83836       40.61594       79.56905
O         35.66945       40.33241       79.22465
H         39.06117       40.45482       77.48399
H         37.90278       43.04334       76.43878
H         36.34539       41.18577       76.79371
H         35.99262       42.58878       77.85798
N         39.91376       43.28282       78.81058
C         40.49743       44.30686       79.67228
C         40.13214       44.20237       81.13949
O         39.73025       45.19397       81.73012
H         40.55233       42.59452       78.38882
H         40.27630       45.31911       79.26813
H         41.59886       44.20057       79.63340
N         40.34232       43.03606       81.80492
C         40.27725       42.85541       83.25160
C         41.60710       42.29566       83.79470
O         41.66937       41.96936       84.97190
C         39.05995       41.98243       83.62636
C         38.97305       40.66687       82.90924
O         37.98818       40.40570       82.23981
O         39.94691       39.75395       83.02804
H         40.60753       42.22022       81.25125
H         40.11060       43.82567       83.77027
H         38.14069       42.56302       83.39041
H         39.06228       41.79954       84.72249
N         42.73204       42.22912       83.01650
C         44.04368       41.79904       83.48622
C         44.22571       40.29997       83.66031
O         45.33867       39.90889       83.98232
H         42.70400       42.60509       82.06261
H         44.30168       42.33709       84.42455
H         44.79220       42.09914       82.71987
N         43.21832       39.39970       83.47078
C         43.38993       37.95096       83.61570
C         42.91708       37.21144       82.37440
O         42.43165       37.84503       81.45269
C         42.62779       37.46275       84.85995
C         43.24092       38.05647       86.13840
C         42.62109       37.52343       87.40437
N         43.11181       37.91720       88.60134
O         41.69157       36.72993       87.36332
H         42.28509       39.74870       83.23821
H         44.46340       37.69242       83.74741
H         42.71192       36.35739       84.92907
H         41.55125       37.73132       84.78468
H         43.13978       39.16314       86.12970
H         44.32203       37.79775       86.16170
H         43.90180       38.57766       88.65161
H         42.71063       37.55429       89.47822
N         43.07105       35.85524       82.27184
C         42.67117       35.07965       81.09910
C         41.73409       33.94958       81.52125
O         42.14916       33.06312       82.25486
C         43.93985       34.53242       80.38776
C         43.59256       33.66385       79.16988
C         44.84177       35.69109       79.92952
H         43.53546       35.35008       83.04128
H         42.13790       35.73066       80.36998
H         44.51435       33.90413       81.10437
H         44.52464       33.28573       78.69874
H         42.99494       32.78082       79.47168
H         43.02401       34.24835       78.41725
H         44.29854       36.34217       79.21300
H         45.16562       36.31047       80.79119
H         45.75550       35.29885       79.43478
N         40.44163       33.93264       81.08738
C         39.47176       32.88570       81.41484
C         39.80877       31.58357       80.67565
O         40.70928       31.58457       79.84963
C         38.05924       33.40609       81.02003
C         36.90065       32.56578       81.48987
N         36.68025       32.37148       82.81040
O         36.13088       32.08489       80.67249
H         40.12297       34.73093       80.52849
H         39.49634       32.72984       82.51490
H         38.01445       33.52617       79.91715
H         37.91074       34.41258       81.46858
H         37.30236       32.79070       83.51614
H         35.87501       31.81229       83.12877
N         39.10869       30.43327       80.90706
C         39.30228       29.19726       80.14031
C         38.95734       29.43013       78.68268
O         39.70827       29.01733       77.81158
C         38.41107       28.06783       80.70218
C         38.57506       26.76315       79.94508
C         39.82871       26.12896       79.86530
C         37.46921       26.16526       79.31473
C         39.97157       24.92471       79.16826
C         37.61388       24.95785       78.62302
C         38.86683       24.33329       78.54806
O         39.02042       23.16742       77.88765
H         38.38973       30.43947       81.64428
H         40.36081       28.86850       80.22859
H         37.34797       28.39518       80.67262
H         38.68163       27.89196       81.76508
H         40.69821       26.56339       80.34064
H         36.49229       26.62978       79.35987
H         40.94272       24.44855       79.11301
H         36.75141       24.50813       78.14701
H         38.28050       22.71964       77.45291
N         37.83161       30.12079       78.36044
C         37.45381       30.49079       77.00307
C         38.57566       31.28410       76.35024
O         39.01273       30.92883       75.26481
C         36.13532       31.30567       77.06632
C         35.55471       31.66114       75.68978
C         34.19859       32.31614       75.79461
O         33.60400       32.63261       74.77703
O         33.61923       32.54173       76.99184
H         37.23503       30.44184       79.13588
H         37.25857       29.57010       76.41058
H         36.28347       32.23885       77.65687
H         35.38575       30.67740       77.59692
H         35.43802       30.73032       75.09545
H         36.24619       32.34783       75.15593
N         39.09128       32.37482       76.97776
C         40.11572       33.23845       76.39427
C         41.49744       32.58847       76.31331
O         42.38762       33.19053       75.72775
C         40.20543       34.54665       77.20029
C         38.84388       35.26727       77.23938
C         38.96229       36.54913       77.97878
O         38.73924       37.60345       77.41879
O         39.32839       36.56261       79.26386
H         38.69356       32.61853       77.89430
H         39.79386       33.50509       75.36280
H         40.95704       35.21882       76.72708
H         40.54452       34.32184       78.23418
H         38.06006       34.66741       77.73806
H         38.51328       35.46252       76.20340
N         41.76575       31.38216       76.88316
C         43.06319       30.74534       76.80658
H         43.83867       31.39021       77.26772
H         43.04012       29.77782       77.35426
H         43.32699       30.54466       75.74717
H         41.03510       30.89565       77.40358
Ca        40.36589       38.43985       79.82316
O         38.78546       36.94419       83.05865
H         38.28539       37.11626       83.89584
H         39.71843       37.19579       83.27216
O         36.69438       37.41505       80.39318
H         35.94453       37.87833       80.84378
H         36.34091       36.51443       80.18177

Ca 1.0



