%chk=holoCaM.loop1.water2.frame357.chk
%nprocshared=20
%mem=10GB
%nosave
#b3lyp/svp scf=(tight,noincore,xqc) Test 
#IOP(5/87=12) Density=Current Pop=(MK,readradii) iop(6/33=2) iop(6/42=6)

holoCaM.loop1.water2.frame357 

   0  1 
C        108.20143       -4.08010       79.29167
C        108.61914       -5.36633       79.94791
O        109.39196       -5.33097       80.89440
H        107.67978       -3.42975       80.02276
H        109.09984       -3.55529       78.90420
H        107.51769       -4.26501       78.43475
N        108.14668       -6.55257       79.47881
C        108.54024       -7.85595       80.00615
C        110.04488       -8.04812       79.84869
O        110.54929       -7.89248       78.74572
C        107.69509       -8.94103       79.30021
C        108.07299      -10.37106       79.57313
O        108.17903      -10.87597       80.81805
O        108.27531      -11.10757       78.62325
H        107.47871       -6.52289       78.69217
H        108.28071       -7.88754       81.07571
H        107.74702       -8.78951       78.19930
H        106.63722       -8.79391       79.61257
N        110.82078       -8.37217       80.93144
C        112.28540       -8.42771       80.90238
C        112.83767       -9.84612       80.92407
O        114.02719       -9.99979       80.68295
C        112.87788       -7.60977       82.09148
C        112.63413       -8.28391       83.47100
C        113.05381       -7.44751       84.69098
C        114.55638       -7.17014       84.80172
N        114.84229       -6.42266       86.02949
H        110.34501       -8.56973       81.81827
H        112.63037       -7.97117       79.94929
H        112.42410       -6.59465       82.08183
H        113.97390       -7.49894       81.94876
H        113.15605       -9.26435       83.51460
H        111.55350       -8.47727       83.60142
H        112.74086       -8.00897       85.60022
H        112.51682       -6.48097       84.67744
H        114.89700       -6.57671       83.92671
H        115.11358       -8.13253       84.82165
H        114.55056       -6.97797       86.86735
H        115.86839       -6.23458       86.09225
H        114.33089       -5.50967       86.02490
N        112.06835      -10.91531       81.27810
C        112.59458      -12.27429       81.41100
C        111.71656      -13.32974       80.72871
O        112.03271      -14.50644       80.83422
C        112.88354      -12.57635       82.89910
C        111.72711      -12.45899       83.84875
O        110.61640      -12.13722       83.46478
O        111.93591      -12.68769       85.15886
H        111.09631      -10.74400       81.56608
H        113.59044      -12.35246       80.92103
H        113.65894      -11.85773       83.24571
H        113.31382      -13.59720       82.98522
N        110.66013      -12.98549       79.93843
C        109.89535      -13.93688       79.14320
C        108.94087      -14.80396       79.93383
O        108.96467      -16.01548       79.77448
H        110.44600      -11.99075       79.79326
H        110.58080      -14.54782       78.51675
H        109.25622      -13.36360       78.44249
N        108.01508      -14.22918       80.74875
C        106.91058      -14.93654       81.38922
C        105.55344      -14.30854       81.03771
O        104.55062      -14.79082       81.54701
C        107.13232      -15.02383       82.91537
C        107.52507      -13.73951       83.58455
O        108.66084      -13.69858       84.29986
O        106.82750      -12.74594       83.51471
H        108.07975      -13.21903       80.90814
H        106.85395      -15.99017       81.03615
H        107.95696      -15.74569       83.09999
H        106.22165      -15.43766       83.40026
N        105.42210      -13.27492       80.14870
C        104.13228      -12.70816       79.76966
C        103.45313      -11.88989       80.85549
O        102.36043      -11.40465       80.59510
H        106.24727      -12.90621       79.65807
H        103.45946      -13.52766       79.43310
H        104.28196      -12.02338       78.90657
N        104.02258      -11.67424       82.07660
C        103.40832      -10.87623       83.13736
C        104.32160       -9.71930       83.53814
O        105.45148       -9.66433       83.07606
C        103.07452      -11.78198       84.35031
C        102.02261      -12.84760       83.99769
O        104.23383      -12.38663       84.86994
H        104.93774      -12.08760       82.27086
H        102.45975      -10.42361       82.77374
H        102.63229      -11.15813       85.15566
H        104.45426      -13.17787       84.31172
H        102.38900      -13.52037       83.19247
H        101.80079      -13.46505       84.89399
H        101.08406      -12.36273       83.65776
N        103.86757       -8.71645       84.34852
C        104.66301       -7.54472       84.73072
C        104.61693       -7.35581       86.24798
O        103.54968       -7.09173       86.78578
C        104.14074       -6.29450       83.94320
C        104.55050       -6.44074       82.44732
C        104.66522       -4.96548       84.52074
C        104.07633       -5.31237       81.52964
H        102.88310       -8.74913       84.65707
H        105.73077       -7.68582       84.44902
H        103.03172       -6.25864       84.03164
H        104.13406       -7.38613       82.04190
H        105.66060       -6.49395       82.37327
H        105.76354       -4.90898       84.44176
H        104.22119       -4.09883       83.99128
H        104.36196       -4.84436       85.58007
H        104.40350       -5.52887       80.48991
H        102.96984       -5.23618       81.54890
H        104.52606       -4.33909       81.81263
N        105.75477       -7.47702       86.99878
C        105.79578       -7.27239       88.45241
C        105.71957       -5.78446       88.81785
O        105.69107       -4.93917       87.93599
C        107.09052       -7.88072       89.08342
C        107.25113       -9.38372       88.82796
O        108.24283       -7.18321       88.68957
H        106.61442       -7.77087       86.51467
H        104.93839       -7.81603       88.90754
H        107.02604       -7.78767       90.18637
H        108.46055       -7.45341       87.76444
H        106.36378       -9.93736       89.19944
H        107.38661       -9.58531       87.75016
H        108.15282       -9.75635       89.35959
N        105.74092       -5.40616       90.13111
C        105.81200       -4.02045       90.60765
C        107.06306       -3.32176       90.09768
O        106.96385       -2.19033       89.64599
C        105.80707       -3.96366       92.15756
C        104.47119       -4.43728       92.73899
O        106.85629       -4.74098       92.67683
H        105.74247       -6.15363       90.83845
H        104.92452       -3.44838       90.25403
H        105.94431       -2.89654       92.45581
H        107.01605       -4.43004       93.60551
H        103.64481       -3.80282       92.35395
H        104.26604       -5.49538       92.47811
H        104.49372       -4.34604       93.84545
N        108.27495       -3.94124       90.14065
C        109.50734       -3.35710       89.61198
C        109.33660       -3.07436       88.12626
O        109.54966       -1.94821       87.69966
C        110.70290       -4.32311       89.82938
C        111.24995       -4.37757       91.27558
C        110.23365       -4.76799       92.35772
C        110.90344       -4.88557       93.73422
N        109.91749       -5.18852       94.77204
H        108.30499       -4.89825       90.51937
H        109.74519       -2.39989       90.12735
H        111.55937       -3.97587       89.20915
H        110.43385       -5.34311       89.47574
H        111.66883       -3.38077       91.53594
H        112.08527       -5.11232       91.28426
H        109.76821       -5.74502       92.10547
H        109.45283       -3.98121       92.41857
H        111.41521       -3.93087       93.98935
H        111.66615       -5.69524       93.70251
H        109.40836       -6.07312       94.54383
H        110.40809       -5.30592       95.68791
H        109.23493       -4.40038       94.85642
N        108.93202       -4.06400       87.28566
C        108.75367       -3.90084       85.84243
C        107.64388       -2.92451       85.46202
O        107.52253       -2.62984       84.28046
C        108.41754       -5.26631       85.21913
C        109.57706       -6.25473       85.34409
C        109.15286       -7.59491       84.84602
O        109.23317       -8.58407       85.55452
O        108.69093       -7.70337       83.59646
H        108.75844       -4.98589       87.70421
H        109.70615       -3.52266       85.40829
H        108.18736       -5.15173       84.13533
H        107.51742       -5.67074       85.73025
H        109.93777       -6.35319       86.38717
H        110.40955       -5.87792       84.72085
N        106.78356       -2.40657       86.38040
C        105.71308       -1.48668       86.05757
H        104.74285       -1.93959       86.35117
H        105.85671       -0.54593       86.62930
H        105.67423       -1.24008       84.97641
H        106.86384       -2.68569       87.35833
Ca       108.17039       -9.67000       82.68834
O        109.38522      -11.23252       86.56252
H        109.69449      -11.33792       87.49633
H        109.57613      -12.10475       86.13911
O        106.41990      -10.92662       85.86063
H        105.59157      -10.50133       86.19791
H        106.60600      -11.65126       86.50959

Ca 1.0



