%chk=holoCaM-CaMKII.loop1.water2.frame67.chk
%nprocshared=20
%mem=10GB
%nosave
#b3lyp/svp scf=(tight,noincore,xqc) Test 
#IOP(5/87=12) Density=Current Pop=(MK,readradii) iop(6/33=2) iop(6/42=6)

holoCaM-CaMKII.loop1.water2.frame67 

   0  1 
C         71.53627       64.09968       73.13151
C         70.12874       63.82251       73.56901
O         69.87027       63.88725       74.75765
H         72.22061       63.37004       73.61234
H         71.64578       64.01298       72.03008
H         71.82364       65.12776       73.43628
N         69.16391       63.53821       72.64981
C         67.76042       63.26018       72.95639
C         67.60214       61.86911       73.59011
O         67.24008       60.91582       72.91558
C         66.95063       63.44882       71.65643
C         65.48022       63.30983       71.86096
O         64.84409       62.54448       71.16176
O         64.84912       64.06064       72.77890
H         69.44184       63.56774       71.65606
H         67.36949       64.03624       73.65394
H         67.29548       62.74370       70.86888
H         67.12558       64.48553       71.29356
N         67.89054       61.70575       74.90920
C         67.91401       60.44739       75.65443
C         66.55462       59.75950       75.71860
O         66.49734       58.55630       75.50943
C         68.46055       60.75944       77.07359
C         68.74309       59.57051       78.00681
C         69.69297       58.53132       77.38290
C         70.22037       57.50554       78.40149
N         71.23145       58.08744       79.29075
H         68.14881       62.54948       75.42863
H         68.64626       59.76787       75.16746
H         67.77222       61.46168       77.59463
H         69.43418       61.28530       76.94140
H         67.79855       59.07091       78.31190
H         69.20134       60.01245       78.91564
H         70.56653       59.02183       76.90115
H         69.12210       57.98924       76.59912
H         70.70242       56.67637       77.83821
H         69.38062       57.07511       78.99073
H         70.84247       58.87152       79.85852
H         71.58075       57.34865       79.94259
H         72.04144       58.43404       78.72519
N         65.41882       60.46273       75.98831
C         64.08839       59.85531       76.13300
C         63.24270       59.90768       74.86140
O         62.13253       59.39341       74.89759
C         63.33264       60.46338       77.34314
C         63.33907       61.96712       77.31660
O         63.83035       62.57305       78.25579
O         63.08123       62.63505       76.17707
H         65.50921       61.48373       76.06028
H         64.19137       58.76613       76.33394
H         63.83986       60.13859       78.27935
H         62.29294       60.07514       77.38161
N         63.70678       60.40895       73.68342
C         62.96284       60.27431       72.43727
C         61.69840       61.10136       72.39568
O         60.63123       60.54686       72.17643
H         64.65191       60.81416       73.63630
H         62.73535       59.20063       72.25900
H         63.60002       60.59641       71.59587
N         61.75964       62.45039       72.56109
C         60.61453       63.35015       72.44278
C         60.83870       64.41770       71.36710
O         60.02013       65.32048       71.25713
C         60.27106       63.95305       73.82488
C         61.33043       64.78091       74.50158
O         61.07166       65.29852       75.71649
O         62.41558       64.98361       73.98707
H         62.67572       62.86109       72.77728
H         59.70235       62.79013       72.13962
H         60.02300       63.11065       74.50600
H         59.36002       64.58174       73.72221
N         61.88853       64.34776       70.49445
C         62.11994       65.30776       69.42535
C         62.68854       66.63485       69.88601
O         62.97841       67.44819       69.01866
H         62.52075       63.53764       70.52318
H         61.18907       65.45519       68.83475
H         62.88305       64.87891       68.73924
N         62.90375       66.93252       71.20141
C         63.53765       68.17055       71.64714
C         64.75506       67.88561       72.51055
O         64.96287       66.76161       72.94449
C         62.53696       69.07542       72.40695
C         61.44567       69.62940       71.48359
O         61.97013       68.40745       73.50723
H         62.62608       66.25688       71.92047
H         63.91135       68.74110       70.76811
H         63.08321       69.96264       72.79524
H         61.33367       67.72749       73.16343
H         60.84048       68.81061       71.04211
H         60.77679       70.30347       72.05970
H         61.91045       70.21778       70.66325
N         65.64383       68.88797       72.74286
C         66.87467       68.75562       73.51346
C         66.88653       69.85960       74.56270
O         66.63789       71.00800       74.21807
C         68.09653       68.83384       72.54965
C         68.02934       67.65785       71.53099
C         69.41950       68.78181       73.34290
C         69.09881       67.70503       70.43942
H         65.46651       69.79999       72.29207
H         66.93651       67.76433       74.01728
H         68.05159       69.79809       71.99663
H         67.05408       67.67858       71.00168
H         68.10553       66.68756       72.07101
H         70.29569       68.88144       72.67239
H         69.48216       69.62374       74.06147
H         69.50336       67.82604       73.90454
H         70.12055       67.61295       70.85684
H         68.94521       66.85283       69.74295
H         69.01304       68.65040       69.86330
N         67.21039       69.58942       75.85797
C         67.21887       70.58859       76.92024
C         68.64476       70.92568       77.29728
O         69.57076       70.33381       76.76321
C         66.45004       70.08210       78.17879
C         65.00951       69.65116       77.88464
O         67.14918       69.04590       78.82259
H         67.53187       68.64781       76.08809
H         66.73740       71.52466       76.56270
H         66.38320       70.91457       78.90978
H         67.00467       68.21515       78.30842
H         64.52081       69.32512       78.82862
H         64.43162       70.49054       77.44881
H         65.00360       68.79451       77.18278
N         68.89390       71.88605       78.22341
C         70.23484       72.20981       78.69295
C         70.85031       71.01330       79.40612
O         71.94952       70.62107       79.04188
C         70.21497       73.46482       79.59970
C         69.83237       74.71087       78.78082
O         69.31921       73.28612       80.66728
H         68.09038       72.40087       78.61435
H         70.88457       72.46464       77.82380
H         71.24435       73.62005       79.99691
H         69.42020       74.07173       81.26549
H         68.81627       74.61618       78.34445
H         69.85671       75.61515       79.42372
H         70.55996       74.86010       77.95344
N         70.19502       70.37152       80.41847
C         70.77130       69.23247       81.13863
C         71.10433       68.06338       80.21770
O         72.00120       67.30321       80.55649
C         69.84734       68.76448       82.28509
C         69.74054       69.82435       83.40072
C         68.70722       69.47918       84.48627
C         69.00083       68.17654       85.24685
N         67.99435       67.94935       86.28496
H         69.25800       70.70953       80.68374
H         71.73422       69.56657       81.58652
H         70.26487       67.83745       82.73296
H         68.84264       68.53329       81.86652
H         69.42914       70.79712       82.96637
H         70.74116       69.96514       83.86644
H         67.70082       69.41380       84.01924
H         68.69519       70.31746       85.21759
H         70.00700       68.23679       85.71760
H         68.98791       67.31450       84.54633
H         68.20817       67.05559       86.78348
H         68.00558       68.73361       86.97706
H         67.04379       67.87565       85.85402
N         70.44708       67.85280       79.04202
C         70.85251       66.82279       78.08643
C         72.20180       67.19772       77.49839
O         73.13476       66.41748       77.62857
C         69.75581       66.61377       77.00957
C         68.57287       65.85110       77.65120
C         67.36391       65.63361       76.77821
O         66.66601       66.56227       76.42079
O         66.96602       64.38693       76.49636
H         69.65307       68.46296       78.80341
H         70.97191       65.84429       78.60560
H         70.14952       65.98836       76.18206
H         69.45710       67.59142       76.58241
H         68.23503       66.37004       78.56937
H         68.95162       64.85209       77.96165
N         72.39108       68.40016       76.88733
C         73.67286       68.85319       76.38324
H         74.47494       68.09743       76.51748
H         73.58542       69.09079       75.30335
H         73.97339       69.77396       76.92836
H         71.60033       69.04849       76.80426
Ca        64.86817       63.95083       75.77872
O         63.43808       67.21950       75.76573
H         63.69917       68.08425       75.36160
H         62.66365       67.44069       76.34172
O         63.90387       65.68180       78.28554
H         63.96682       66.42060       78.94141
H         62.99814       65.30480       78.42057

Ca 1.0



