%chk=holoCaM-CaMKII.loop1.water2.frame170.chk
%nprocshared=20
%mem=10GB
%nosave
#b3lyp/svp scf=(tight,noincore,xqc) Test 
#IOP(5/87=12) Density=Current Pop=(MK,readradii) iop(6/33=2) iop(6/42=6)

holoCaM-CaMKII.loop1.water2.frame170 

   0  1 
C        108.13482       55.52649       13.92257
C        108.41753       56.96865       14.21989
O        108.54941       57.33299       15.37845
H        107.17885       55.44317       13.36383
H        108.95559       55.10891       13.30121
H        108.05707       54.93499       14.85902
N        108.55570       57.85050       13.19639
C        108.85526       59.26157       13.39896
C        107.65429       59.98252       14.01483
O        106.60166       60.03135       13.39379
C        109.26741       59.87103       12.04666
C        109.75171       61.28160       12.12160
O        109.76504       61.95949       13.27961
O        110.15808       61.81753       11.10822
H        108.49237       57.48260       12.23344
H        109.74490       59.33130       14.06681
H        108.42073       59.81624       11.32892
H        110.11111       59.26697       11.64499
N        107.74878       60.54298       15.25522
C        106.62032       61.11936       15.98771
C        106.40569       62.61056       15.74023
O        105.35503       63.09878       16.13281
C        106.80238       60.87190       17.49930
C        106.95772       59.39552       17.94814
C        105.68641       58.54121       17.80004
C        105.49207       57.89546       16.41593
N        104.17552       57.27124       16.32075
H        108.62434       60.38673       15.76168
H        105.68059       60.65321       15.64936
H        105.95344       61.31604       18.06273
H        107.71617       61.42211       17.81296
H        107.16497       59.45747       19.03930
H        107.83162       58.88911       17.48813
H        104.81339       59.16003       18.09636
H        105.75459       57.69104       18.51463
H        106.27568       57.12453       16.27170
H        105.58648       58.60371       15.58290
H        104.04249       56.57649       17.09000
H        103.43731       58.01096       16.37814
H        104.09252       56.78678       15.39791
N        107.33783       63.40549       15.14067
C        107.11449       64.82786       14.85496
C        107.34039       65.17329       13.38271
O        107.20254       66.33773       13.03069
C        107.94682       65.71236       15.81123
C        109.44063       65.54694       15.77263
O        110.19307       66.28254       16.61285
O        109.98239       64.76561       15.00832
H        108.24979       62.99662       14.90901
H        106.05775       65.10296       15.06545
H        107.61206       65.49557       16.84883
H        107.71585       66.78083       15.60439
N        107.64254       64.22108       12.45544
C        107.81301       64.49476       11.03965
C        108.98975       65.39683       10.75441
O        108.81702       66.40924       10.09199
H        107.71331       63.23631       12.73857
H        106.87736       64.92558       10.62215
H        108.00104       63.53131       10.51613
N        110.23252       65.05010       11.18598
C        111.45353       65.77077       10.83901
C        112.38503       64.88126       10.00190
O        113.53067       65.25435        9.79007
C        112.11569       66.34271       12.11640
C        112.60338       65.34419       13.12565
O        112.49632       64.14600       12.93845
O        113.17268       65.78933       14.26110
H        110.32313       64.20272       11.76083
H        111.22398       66.66090       10.21332
H        111.37704       67.00119       12.62453
H        112.98265       66.97238       11.82175
N        111.92313       63.73153        9.41674
C        112.69968       62.87410        8.52866
C        113.57644       61.85445        9.23451
O        114.17037       61.03393        8.55053
H        110.92601       63.49765        9.50064
H        113.28322       63.48891        7.81046
H        111.97758       62.27233        7.93600
N        113.71412       61.84134       10.58558
C        114.53401       60.88381       11.32877
C        113.72388       60.35825       12.54794
O        113.42609       61.54000       13.23764
C        115.85418       61.58787       11.79712
C        116.80092       61.89016       10.63674
O        115.60249       62.76365       12.52853
H        113.24865       62.58319       11.11977
H        114.81829       60.01365       10.69637
H        116.42033       60.90074       12.46112
H        115.26004       63.45500       11.90322
H        117.07849       60.94564       10.12413
H        116.32952       62.58247        9.90992
H        117.72479       62.36186       11.03527
N        114.58786       59.45635       13.34426
C        114.00290       58.68805       14.46352
C        115.06301       58.70865       15.56932
O        116.20100       58.34600       15.30898
C        113.67362       57.18735       14.08820
C        112.71829       57.05096       12.87295
C        113.06676       56.45179       15.30860
C        112.54043       55.59433       12.40299
H        115.15137       58.81611       12.73572
H        113.06750       59.17413       14.82019
H        114.62945       56.68498       13.81739
H        113.14347       57.60574       12.01256
H        111.72265       57.48283       13.11377
H        112.09342       56.90503       15.59829
H        112.90895       55.37232       15.11561
H        113.74935       56.49090       16.17307
H        112.05110       54.95590       13.16613
H        111.89541       55.56347       11.50040
H        113.52527       55.14856       12.14258
N        114.73510       59.07176       16.83919
C        115.65247       59.04982       17.97654
C        115.36398       57.80611       18.77307
O        114.46177       57.06954       18.43097
C        115.47465       60.28954       18.90457
C        115.82702       61.61147       18.22007
O        114.18011       60.31041       19.45910
H        113.75129       59.20260       17.03846
H        116.70529       58.99352       17.62652
H        116.17694       60.21356       19.76076
H        113.64333       61.02672       19.04082
H        115.16625       61.75426       17.35070
H        115.67075       62.45379       18.93062
H        116.88844       61.61109       17.89795
N        116.12091       57.49076       19.85168
C        115.85183       56.29973       20.64173
C        114.54987       56.47952       21.42864
O        113.75584       55.55044       21.49211
C        117.06404       55.98640       21.54252
C        116.98314       54.55710       22.08319
O        118.23844       56.08105       20.77279
H        116.92136       58.09240       20.08942
H        115.76616       55.43798       19.94053
H        117.08958       56.73118       22.37291
H        118.95549       56.42150       21.36851
H        116.98689       53.83757       21.23208
H        117.87328       54.34472       22.71046
H        116.06388       54.40057       22.68082
N        114.24782       57.68388       22.00204
C        113.00556       57.98230       22.72419
C        111.77796       57.72057       21.85596
O        110.90595       56.97900       22.28381
C        113.03355       59.43531       23.27383
C        114.08526       59.55007       24.40013
C        114.12806       60.92814       25.07491
C        115.17028       60.92398       26.21044
N        115.14381       62.17234       26.97153
H        114.93490       58.44646       21.89068
H        112.91744       57.31045       23.60648
H        112.04107       59.68158       23.71137
H        113.24097       60.16388       22.45701
H        115.09530       59.30872       24.00852
H        113.82513       58.80414       25.18406
H        113.12555       61.15333       25.49844
H        114.39041       61.71480       24.33368
H        116.18580       60.77074       25.78016
H        114.96115       60.08278       26.90884
H        114.21417       62.28178       27.43867
H        115.88382       62.13629       27.71038
H        115.32629       62.98871       26.34508
N        111.67517       58.23706       20.60216
C        110.58965       57.90631       19.67064
C        110.50360       56.39852       19.47806
O        109.42158       55.84492       19.61665
C        110.82954       58.62503       18.32836
C        110.59678       60.14702       18.48736
C        111.14380       60.88746       17.32310
O        112.33794       60.85239       17.14357
O        110.43376       61.59940       16.44633
H        112.44601       58.83194       20.27421
H        109.60904       58.25499       20.06337
H        110.14144       58.25242       17.53745
H        111.86274       58.38767       17.99440
H        111.13796       60.54157       19.37046
H        109.52115       60.34184       18.62466
N        111.61620       55.66135       19.22515
C        111.59803       54.22015       19.10844
H        112.63458       53.84057       18.97305
H        111.18323       53.76931       20.03576
H        110.98691       53.91560       18.23460
H        112.51819       56.13486       19.16294
Ca       111.93867       61.92139       14.84994
O        114.76365       62.96990       15.31531
H        115.39829       63.51814       15.83905
H        114.41492       63.59122       14.63397
O        112.41899       64.05882       17.25097
H        113.09545       64.40290       17.88587
H        112.31002       64.78798       16.59190

Ca 1.0



