%chk=holoCaM.loop3.water2.frame67.chk
%nprocshared=20
%mem=10GB
%nosave
#b3lyp/svp scf=(tight,noincore,xqc) Test 
#IOP(5/87=12) Density=Current Pop=(MK,readradii) iop(6/33=2) iop(6/42=6)

holoCaM.loop3.water2.frame67 

   0  1 
C         79.72795        2.20126       14.43031
C         79.52503        2.65114       15.84157
O         79.51347        1.79918       16.71963
H         80.70789        1.68955       14.34221
H         78.91890        1.48617       14.16462
H         79.69177        3.05436       13.72299
N         79.30821        3.96808       16.13670
C         78.97492        4.41109       17.48072
C         77.51339        4.76216       17.44354
O         77.14431        5.72236       16.78012
C         79.88677        5.57511       17.95083
C         79.87646        5.76773       19.44909
O         79.06836        5.01983       20.22049
O         80.69323        6.50708       19.97121
H         79.27987        4.65871       15.37064
H         79.13072        3.56383       18.18353
H         79.65797        6.52002       17.41204
H         80.93076        5.30884       17.70563
N         76.60765        3.95089       18.05387
C         75.17033        4.11523       17.89097
C         74.59126        4.94957       19.01580
O         73.41150        5.26668       18.95693
C         74.50152        2.73384       17.71642
C         75.07877        2.00540       16.48390
C         74.47988        0.60538       16.29466
C         75.13233       -0.16519       15.12860
N         74.90721        0.47313       13.82966
H         76.94567        3.14478       18.60327
H         74.96385        4.69339       16.96176
H         73.40509        2.86114       17.58098
H         74.67504        2.12356       18.63014
H         76.17797        1.89086       16.60088
H         74.87865        2.62624       15.58541
H         73.38254        0.67673       16.13293
H         74.65889        0.01797       17.22180
H         74.69812       -1.18905       15.10274
H         76.22629       -0.26623       15.30871
H         75.38222        1.40205       13.78254
H         75.31415       -0.13243       13.08041
H         73.88233        0.58305       13.65406
N         75.38459        5.41803       20.02443
C         74.95540        6.39736       21.01036
C         75.72626        7.71686       20.83426
O         75.42562        8.66397       21.54656
C         75.05042        5.78641       22.41997
C         76.42955        5.31464       22.76363
O         76.63809        4.13261       22.98744
O         77.44025        6.19343       22.83123
H         76.36921        5.12353       20.07836
H         73.88562        6.65744       20.85508
H         74.35861        4.91538       22.46072
H         74.71537        6.52339       23.17974
N         76.65779        7.88110       19.84104
C         77.22535        9.16421       19.45121
C         78.20292        9.82019       20.40289
O         78.66633       10.89694       20.05023
H         76.89346        7.09612       19.22082
H         76.39122        9.86841       19.24284
H         77.78019        9.01916       18.49731
N         78.58984        9.28224       21.59618
C         79.52113        9.98658       22.48239
C         80.96630       10.02019       21.95569
O         81.81206       10.59823       22.62338
C         79.44777        9.43862       23.92450
C         80.16350        8.13300       24.15209
N         81.12924        8.04997       25.09623
O         79.86744        7.14423       23.50289
H         78.16695        8.39931       21.90708
H         79.14775       11.03217       22.57462
H         78.37977        9.33791       24.21744
H         79.89437       10.20035       24.60079
H         81.39134        8.86905       25.66414
H         81.60740        7.15938       25.27722
N         81.31909        9.44846       20.76370
C         82.66106        9.50616       20.19911
C         83.62421        8.46980       20.74946
O         84.75161        8.44197       20.26904
H         80.60118        9.02000       20.16964
H         83.06924       10.53597       20.29707
H         82.58183        9.29159       19.11136
N         83.28059        7.58238       21.72497
C         84.18594        6.56507       22.25688
C         83.53981        5.19058       22.18877
O         82.44433        5.02554       22.71394
C         84.51521        6.89676       23.72053
C         85.27801        8.19232       23.85203
C         84.68096        9.31228       24.45189
C         86.60221        8.28681       23.38937
C         85.39359       10.50677       24.58616
C         87.31783        9.47938       23.53498
C         86.71436       10.59429       24.13483
O         87.39240       11.74978       24.28638
H         82.33913        7.63765       22.14271
H         85.14760        6.53909       21.69640
H         85.12457        6.08771       24.18011
H         83.56492        6.95063       24.28143
H         83.66249        9.26514       24.81053
H         87.08592        7.43319       22.93070
H         84.91907       11.36380       25.04695
H         88.34126        9.53437       23.18531
H         88.31189       11.84861       24.00098
N         84.18325        4.14175       21.60462
C         83.66851        2.77346       21.57216
C         84.62279        1.87678       22.34659
O         85.82160        1.93032       22.08869
C         83.53544        2.26064       20.10654
C         82.64540        3.19924       19.25674
C         82.96722        0.82334       20.09519
C         82.57253        2.76298       17.78855
H         85.11317        4.30889       21.18427
H         82.65570        2.71538       22.03469
H         84.55064        2.24281       19.65025
H         83.07907        4.22173       19.27450
H         81.61866        3.25074       19.68191
H         81.94492        0.80413       20.52772
H         82.93457        0.39254       19.07704
H         83.61434        0.14305       20.67097
H         82.00299        3.49444       17.19167
H         83.59226        2.69031       17.35723
H         82.05196        1.79215       17.67722
N         84.15765        0.96039       23.24206
C         85.02591        0.00624       23.92679
C         84.95631       -1.35347       23.25799
O         84.19211       -1.52307       22.31766
C         84.62934       -0.09470       25.41227
O         83.33243       -0.62272       25.54816
H         83.13557        0.86700       23.36203
H         86.08540        0.33941       23.86661
H         84.71009        0.90543       25.89785
H         85.32806       -0.76293       25.95773
H         82.72269        0.12935       25.76550
N         85.74935       -2.37703       23.67312
C         85.64653       -3.72332       23.12236
C         84.30628       -4.33691       23.49167
O         83.70175       -4.98689       22.65282
C         86.78855       -4.60988       23.61964
H         86.44187       -2.19549       24.41824
H         85.75522       -3.68544       22.01355
H         87.76047       -4.16565       23.31179
H         86.76876       -4.71660       24.72326
H         86.71300       -5.61606       23.15162
N         83.76992       -4.14612       24.73558
C         82.45862       -4.66594       25.12378
C         81.29822       -4.02948       24.35472
O         80.18126       -4.50469       24.51449
C         82.22860       -4.44926       26.62383
H         84.31832       -3.61765       25.43087
H         82.46113       -5.76217       24.93346
H         81.26472       -4.90360       26.93925
H         83.04391       -4.92763       27.20644
H         82.20772       -3.36281       26.85866
N         81.47364       -2.97176       23.50705
C         80.40565       -2.37063       22.71343
C         80.60956       -2.67556       21.22104
O         79.69024       -2.46695       20.44362
C         80.40332       -0.83417       22.94611
C         79.16947       -0.12388       22.36363
C         79.37919        1.35110       22.16849
O         79.64771        2.20329       23.17700
O         79.28639        1.80430       21.03710
H         82.40851       -2.57370       23.40644
H         79.43110       -2.80773       23.02246
H         81.33037       -0.44135       22.47653
H         80.44823       -0.59334       24.03120
H         78.28388       -0.32168       23.00337
H         78.93650       -0.50858       21.35770
N         81.78891       -3.15738       20.73379
C         82.00086       -3.40192       19.32525
H         83.03605       -3.77124       19.15979
H         81.28424       -4.16548       18.95850
H         81.87036       -2.45644       18.75664
H         82.58247       -3.33126       21.35396
Ca        79.56804        4.28321       22.29767
O         78.36068        4.73775       25.40086
H         77.54172        5.26935       25.56411
H         78.28419        3.96624       26.01626
O         81.31043        4.48973       25.41438
H         81.08146        5.00604       26.22767
H         82.28940        4.60100       25.31926

Ca 1.0



