%chk=holoCaM.loop2.water2.frame169.chk
%nprocshared=20
%mem=10GB
%nosave
#b3lyp/svp scf=(tight,noincore,xqc) Test 
#IOP(5/87=12) Density=Current Pop=(MK,readradii) iop(6/33=2) iop(6/42=6)

holoCaM.loop2.water2.frame169 

   -2  1 
C         20.18903       71.79670      -11.67606
C         21.29899       70.91047      -11.17519
O         21.76498       71.08944      -10.06037
H         19.31766       71.72130      -10.99248
H         20.52956       72.84871      -11.73760
H         19.84439       71.48412      -12.68779
N         21.73992       69.89763      -11.95970
C         22.71039       68.88559      -11.56365
C         24.12730       69.41597      -11.30516
O         24.66378       70.14044      -12.12978
C         22.74643       67.83515      -12.67916
C         23.67809       66.74542      -12.34374
O         24.61656       66.51500      -13.08794
O         23.50125       66.04959      -11.20377
H         21.29387       69.79604      -12.88605
H         22.33781       68.37432      -10.64810
H         23.05545       68.30308      -13.63901
H         21.73758       67.38949      -12.80581
N         24.81951       68.97246      -10.20800
C         26.21035       69.30242       -9.88993
C         27.12679       68.06134       -9.80464
O         28.31025       68.25243       -9.54761
C         26.23113       70.05684       -8.55204
H         24.33538       68.34220       -9.56237
H         26.63335       69.97519      -10.66593
H         25.60983       70.97516       -8.62616
H         25.82381       69.42220       -7.73476
H         27.26453       70.36246       -8.28061
N         26.67165       66.77681       -9.96403
C         27.51321       65.57743       -9.78159
C         27.28783       64.43592      -10.80184
O         28.10605       63.52990      -10.84953
C         27.34668       65.05817       -8.33698
C         25.93068       64.72002       -7.93595
O         25.68025       64.34871       -6.66780
O         25.00390       64.80178       -8.72390
H         25.66510       66.65470      -10.09001
H         28.58141       65.87231       -9.89369
H         27.69757       65.85759       -7.65066
H         27.98862       64.16467       -8.17678
N         26.21937       64.41642      -11.64514
C         25.96060       63.42111      -12.68115
C         25.28810       62.14894      -12.18852
O         25.16050       61.22141      -12.97500
H         25.56908       65.17255      -11.57118
H         26.90516       63.20930      -13.22447
H         25.25627       63.85532      -13.42529
N         24.82558       62.02857      -10.91420
C         24.27739       60.79205      -10.35259
C         22.83133       60.43419      -10.75879
O         22.32832       59.44837      -10.23632
C         24.39745       60.84017       -8.81331
C         23.57190       61.89532       -8.13148
N         23.53621       61.93008       -6.78410
O         22.92664       62.70761       -8.77441
H         24.96782       62.82457      -10.28118
H         24.94022       59.95157      -10.65527
H         25.46076       61.00287       -8.53323
H         24.08773       59.85324       -8.40852
H         24.07973       61.26367       -6.22064
H         22.93757       62.60085       -6.29949
N         22.10470       61.13874      -11.67414
C         20.73322       60.77662      -12.05138
C         19.64141       61.14355      -11.03684
O         18.49419       60.80456      -11.29763
H         22.56471       61.89693      -12.19163
H         20.69829       59.68597      -12.27389
H         20.46816       61.30465      -12.99195
N         19.89734       61.82137       -9.88005
C         18.88566       62.18687       -8.87559
C         19.04775       63.61163       -8.37222
O         20.12980       63.95613       -7.92784
C         18.96814       61.26524       -7.62005
C         18.36696       59.89850       -7.90288
O         20.26702       61.08394       -7.10037
H         20.87040       62.06362       -9.68391
H         17.85525       62.08603       -9.28508
H         18.33447       61.71701       -6.82232
H         20.88840       61.74251       -7.48758
H         18.93961       59.36952       -8.69016
H         18.38019       59.30106       -6.96681
H         17.30842       60.01639       -8.22139
N         17.98060       64.45743       -8.27936
C         18.07309       65.75047       -7.59955
C         18.39994       65.53054       -6.12411
O         17.60017       64.96494       -5.39138
C         16.77496       66.59506       -7.79093
C         16.64339       66.95308       -9.29568
C         16.79449       67.87574       -6.93129
C         15.44769       67.82823       -9.65450
H         17.06814       64.14825       -8.64819
H         18.90030       66.33081       -8.06173
H         15.89902       65.99376       -7.45871
H         16.57345       66.01990       -9.89230
H         17.54902       67.50344       -9.61864
H         16.89983       67.63408       -5.85649
H         17.61852       68.54964       -7.23882
H         15.83051       68.41679       -7.01231
H         15.44244       67.98885      -10.75337
H         14.50096       67.33966       -9.34947
H         15.53254       68.82808       -9.18074
N         19.59904       65.96031       -5.64370
C         20.03659       65.86842       -4.25697
C         19.33139       66.91804       -3.39062
O         18.49551       67.63997       -3.91025
C         21.56941       66.07832       -4.23106
C         22.34166       64.91628       -4.83822
O         22.79791       64.85457       -6.11357
O         22.70967       64.03388       -4.08254
H         20.25290       66.37791       -6.31748
H         19.82341       64.85568       -3.84661
H         21.89821       66.12025       -3.17176
H         21.86190       67.05331       -4.67649
N         19.60244       67.06600       -2.06102
C         19.00064       68.10522       -1.21893
C         19.37644       69.52425       -1.67167
O         18.45457       70.27204       -1.95061
C         19.33157       67.87051        0.27345
C         18.90379       69.01600        1.17186
C         17.57051       69.46848        1.21284
C         19.86386       69.65479        1.97706
C         17.21655       70.54586        2.03531
C         19.50398       70.72248        2.80180
C         18.18249       71.17093        2.82897
H         20.26510       66.40535       -1.62237
H         17.89129       68.01944       -1.29397
H         20.42113       67.70332        0.39061
H         18.82480       66.93600        0.59988
H         16.80796       69.00130        0.60343
H         20.89518       69.32612        1.96911
H         16.19360       70.89979        2.05727
H         20.25323       71.20326        3.41744
H         17.90895       72.00296        3.46528
N         20.66358       70.00017       -1.75400
C         20.96736       71.37531       -2.14648
C         20.58910       71.66126       -3.58827
O         20.32777       72.81465       -3.90538
C         22.46843       71.50839       -1.86894
C         22.97155       70.09790       -2.09527
C         21.86699       69.25677       -1.45588
H         20.42889       72.10584       -1.50366
H         22.99070       72.31321       -2.43115
H         22.59548       71.70813       -0.78069
H         22.96387       69.91378       -3.19241
H         23.99203       69.88776       -1.70895
H         21.89392       68.24581       -1.90740
H         21.98682       69.20483       -0.35237
N         20.49976       70.67048       -4.51102
C         20.01533       70.89229       -5.87023
C         18.53797       71.23511       -5.82862
O         18.12293       72.17495       -6.48920
C         20.30326       69.65924       -6.73827
C         21.83172       69.48295       -6.82112
C         22.25037       68.28445       -7.56415
O         21.36864       67.53352       -8.22630
O         23.40386       67.90107       -7.45537
H         20.75413       69.71054       -4.22720
H         20.57126       71.72687       -6.35360
H         19.89460       69.79911       -7.76390
H         19.82660       68.75909       -6.28887
H         22.23717       69.34524       -5.79880
H         22.32153       70.36344       -7.28316
N         17.70586       70.55258       -4.99506
C         16.30270       70.84568       -4.80571
H         15.70655       69.92996       -4.99735
H         16.13915       71.15105       -3.74934
H         15.94818       71.65736       -5.47109
H         18.09861       69.81170       -4.41484
Ca        22.20067       65.54656       -8.16058
O         19.80295       66.77396      -10.58817
H         19.69750       67.07604      -11.52336
H         19.81280       67.61142      -10.06555
O         21.55098       64.13057      -11.16617
H         21.31893       63.67432      -12.00890
H         21.28204       65.05968      -11.34793

Ca 1.0



