%chk=holoCaM-CaMKII.loop2.water1.frame110.chk
%nprocshared=20
%mem=10GB
%nosave
#b3lyp/svp scf=(tight,noincore,xqc) Test 
#IOP(5/87=12) Density=Current Pop=(MK,readradii) iop(6/33=2) iop(6/42=6)

holoCaM-CaMKII.loop2.water1.frame110 

   -2  1 
C         13.39692       39.50241       71.36609
C         13.14909       39.24220       69.91040
O         13.55926       40.03849       69.07827
H         13.96167       40.44787       71.50956
H         12.42625       39.57966       71.89999
H         13.98358       38.66481       71.79864
N         12.47116       38.12451       69.53152
C         12.19125       37.79138       68.13952
C         11.34656       38.88415       67.50618
O         10.25899       39.15106       67.99879
C         11.50146       36.41490       68.07290
C         11.22831       35.96404       66.67128
O         12.14219       35.81926       65.87531
O          9.96665       35.68274       66.30120
H         12.15122       37.48112       70.27315
H         13.15387       37.70284       67.60158
H         10.54565       36.44720       68.63984
H         12.16315       35.65897       68.54989
N         11.81232       39.57946       66.42562
C         11.11455       40.71576       65.83802
C         10.66712       40.47600       64.40074
O          9.97778       41.34648       63.88635
C         12.01679       41.95243       65.92725
H         12.72296       39.32103       66.02673
H         10.19000       40.93136       66.41661
H         11.49637       42.85121       65.53301
H         12.28782       42.14682       66.98759
H         12.95199       41.79560       65.34706
N         10.97053       39.33938       63.69596
C         10.41744       39.06769       62.36078
C          9.52075       37.82938       62.34701
O          8.79019       37.66906       61.37953
C         11.52205       39.02563       61.27831
C         12.52075       37.91646       61.44354
O         13.53556       37.90803       60.76526
O         12.36040       36.99762       62.40650
H         11.59063       38.64103       64.12530
H          9.75152       39.90926       62.07283
H         12.07186       39.99152       61.33845
H         11.07459       38.94981       60.26463
N          9.49399       36.92865       63.37794
C          8.51578       35.85370       63.48665
C          9.08338       34.44991       63.36496
O          8.31760       33.51697       63.56227
H         10.15525       37.02257       64.15736
H          7.72492       35.94813       62.71324
H          8.01628       35.96229       64.47312
N         10.36648       34.20113       62.97098
C         10.83056       32.85317       62.62429
C         11.23123       31.99245       63.82276
O         11.63990       30.85944       63.60841
C         11.91884       32.92739       61.52896
C         13.27707       33.40812       61.96831
N         14.38727       32.76167       61.54343
O         13.38841       34.40843       62.65706
H         10.95747       35.00396       62.72792
H          9.99095       32.33707       62.10463
H         11.54698       33.61012       60.73470
H         12.03425       31.92610       61.05837
H         14.32268       31.93976       60.92636
H         15.32222       33.10638       61.79045
N         11.09451       32.42928       65.10934
C         11.37703       31.59525       66.27055
C         12.84976       31.44286       66.60663
O         13.13403       30.77395       67.59075
H         10.68319       33.35348       65.28905
H         10.89388       30.60127       66.14171
H         10.91291       32.07171       67.16112
N         13.83777       32.04681       65.88543
C         15.25776       31.98763       66.24342
C         15.77907       33.40205       66.50530
O         14.98649       34.33656       66.46860
C         16.04491       31.24453       65.13780
C         15.57374       29.79078       65.00407
O         15.89012       31.90274       63.91323
H         13.58654       32.59837       65.05190
H         15.41478       31.41747       67.18605
H         17.12097       31.22184       65.41994
H         16.61390       31.57628       63.31689
H         15.70659       29.25460       65.96808
H         14.50472       29.74389       64.70727
H         16.17620       29.26920       64.23043
N         17.09673       33.64053       66.79008
C         17.61911       34.96721       67.12062
C         18.55587       35.45162       66.01371
O         19.50462       34.74787       65.69186
C         18.38142       34.95402       68.48765
C         17.60289       34.21094       69.60369
C         18.68787       36.40481       68.91718
C         18.38147       34.12688       70.92453
H         17.76384       32.85462       66.78480
H         16.77882       35.68375       67.22679
H         19.33994       34.40617       68.34542
H         17.42535       33.16448       69.27609
H         16.61881       34.69327       69.78560
H         19.25511       36.93136       68.13425
H         17.74315       36.96010       69.10794
H         19.31677       36.44762       69.82658
H         17.82170       33.50430       71.65235
H         19.37911       33.66512       70.75871
H         18.51599       35.12650       71.38523
N         18.39107       36.68412       65.44592
C         19.33925       37.28619       64.50783
C         20.21493       38.27567       65.25216
O         20.01338       38.47046       66.43988
C         18.60091       38.03995       63.37770
C         17.79134       37.15909       62.48445
O         18.33449       36.27913       61.83618
O         16.47138       37.37996       62.33882
H         17.64066       37.28537       65.80493
H         20.01389       36.51361       64.07792
H         19.33712       38.54610       62.72083
H         17.94214       38.81764       63.82690
N         21.23717       38.92617       64.63128
C         22.08730       39.87906       65.33380
C         21.28213       41.10612       65.78705
O         21.38756       41.43630       66.95884
C         23.32757       40.25914       64.49748
C         24.36417       40.97894       65.32509
C         24.65533       42.33113       65.08757
C         25.06681       40.29105       66.33308
C         25.62950       42.98535       65.84805
C         26.04747       40.94605       67.08300
C         26.32768       42.29294       66.84162
H         21.43754       38.71031       63.64201
H         22.48948       39.35638       66.23225
H         23.04791       40.86868       63.62496
H         23.80958       39.33939       64.09908
H         24.12408       42.87942       64.32007
H         24.86813       39.24387       66.52763
H         25.84582       44.02914       65.66404
H         26.59273       40.40818       67.84844
H         27.08716       42.79919       67.42301
N         20.41711       41.80338       64.96345
C         19.59088       42.94201       65.39090
C         18.62693       42.68979       66.55192
O         17.93496       43.61976       66.94461
C         18.74799       43.26626       64.14686
C         19.66922       42.86612       63.02579
C         20.21863       41.54652       63.55009
H         20.28318       43.77461       65.64396
H         17.88174       42.56329       64.09154
H         18.35666       44.30507       64.10466
H         19.19479       42.79845       62.02355
H         20.49890       43.60886       62.98533
H         19.47639       40.73275       63.43870
H         21.13019       41.32336       62.97628
N         18.51607       41.46741       67.13722
C         17.61637       41.13184       68.22896
C         18.44289       40.89041       69.47294
O         18.18879       41.52624       70.48538
C         16.82732       39.86400       67.85709
C         16.04602       40.05807       66.55532
C         15.41829       38.79697       66.06523
O         14.86149       38.81452       64.85219
O         15.43858       37.76235       66.71176
H         19.08343       40.69643       66.78365
H         16.89475       41.95595       68.43115
H         16.13807       39.57731       68.67999
H         17.54524       39.02984       67.70077
H         16.74582       40.37417       65.75360
H         15.26601       40.84147       66.67323
N         19.48510       40.01078       69.44882
C         20.36277       39.76137       70.56898
H         21.39516       40.06219       70.28908
H         20.06166       40.32495       71.47482
H         20.35818       38.67631       70.79959
H         19.70119       39.50567       68.58332
Ca        13.99668       37.01716       63.88528
O         16.37653       34.73604       63.71915
H         17.12396       34.18774       64.06201
H         16.51329       34.72770       62.74101

Ca 1.0



