%chk=holoCaM-CaMKII.loop1.water2.frame139.chk
%nprocshared=20
%mem=10GB
%nosave
#b3lyp/svp scf=(tight,noincore,xqc) Test 
#IOP(5/87=12) Density=Current Pop=(MK,readradii) iop(6/33=2) iop(6/42=6)

holoCaM-CaMKII.loop1.water2.frame139 

   0  1 
C          5.58383       33.53166       72.35641
C          4.12462       33.83378       72.14960
O          3.46200       34.18650       73.10789
H          6.10035       34.42889       72.75665
H          5.69253       32.69300       73.07516
H          6.08220       33.23939       71.40685
N          3.57991       33.74374       70.90524
C          2.18344       34.00754       70.52988
C          1.24732       32.86421       70.95753
O          0.71130       32.18262       70.09649
C          2.19544       34.25653       68.99291
C          0.89991       34.43580       68.24408
O          0.71929       33.77188       67.23670
O         -0.01665       35.36964       68.55144
H          4.24095       33.51270       70.14624
H          1.82838       34.95801       70.98624
H          2.72353       33.41027       68.49889
H          2.80291       35.17203       68.81809
N          0.98501       32.60473       72.27639
C          0.04121       31.58017       72.73230
C         -1.41255       31.97679       72.54251
O         -2.25576       31.11093       72.73989
C          0.28502       31.21682       74.22143
C          1.33099       30.10438       74.38655
C          2.71408       30.41093       73.79695
C          3.67239       29.21108       73.91993
N          3.21373       28.04574       73.15357
H          1.45133       33.15982       72.99634
H          0.18094       30.66004       72.12186
H         -0.63692       30.77177       74.65792
H          0.51063       32.12445       74.82376
H          0.90471       29.21504       73.87985
H          1.43441       29.86640       75.46774
H          3.14707       31.28250       74.33344
H          2.63344       30.66633       72.72026
H          3.80007       28.93042       74.98853
H          4.66297       29.52531       73.52491
H          2.34710       27.63570       73.56748
H          3.04080       28.30995       72.15613
H          3.95157       27.30630       73.18128
N         -1.79862       33.22002       72.13990
C         -3.18390       33.54006       71.81619
C         -3.40257       33.63681       70.31051
O         -4.53907       33.81045       69.89498
C         -3.75530       34.64669       72.73515
C         -3.02163       35.93319       73.05948
O         -3.47373       36.60057       73.97745
O         -1.90714       36.39716       72.45687
H         -1.08693       33.94529       71.99098
H         -3.84190       32.67207       72.04892
H         -3.83708       34.14599       73.72614
H         -4.79429       34.89034       72.42055
N         -2.39446       33.33250       69.43621
C         -2.59570       33.04198       68.02528
C         -3.02871       34.20142       67.16829
O         -3.20896       33.98522       65.97783
H         -1.45150       33.15684       69.79131
H         -3.34085       32.22229       67.93560
H         -1.63943       32.66163       67.60441
N         -3.22049       35.45253       67.66921
C         -3.67241       36.56344       66.83930
C         -2.62270       37.02934       65.82131
O         -2.93491       37.91729       65.04072
C         -4.20569       37.70345       67.73457
C         -3.18901       38.26865       68.68108
O         -2.20582       38.84225       68.25503
O         -3.37308       38.16340       70.01113
H         -3.08993       35.61434       68.67582
H         -4.55911       36.21747       66.26204
H         -5.04191       37.28722       68.33976
H         -4.62016       38.51948       67.10600
N         -1.38089       36.46413       65.73823
C         -0.41893       36.77574       64.69304
C          0.58741       37.83455       65.08181
O          1.51086       38.04481       64.30821
H         -1.12168       35.69947       66.36979
H         -0.92786       37.03692       63.74045
H          0.15999       35.84684       64.49155
N          0.49445       38.53795       66.24717
C          1.50402       39.49783       66.68494
C          2.04902       39.09167       68.04549
O          1.55744       38.14431       68.64486
C          0.93656       40.94052       66.70747
C          0.52184       41.41861       65.30525
O         -0.12468       41.06154       67.62192
H         -0.30907       38.37855       66.86384
H          2.36651       39.49404       65.98262
H          1.73803       41.63541       67.03787
H         -0.95154       40.73884       67.18006
H          1.39060       41.37851       64.61419
H         -0.29213       40.78592       64.89190
H          0.16276       42.46858       65.35726
N          3.11317       39.75818       68.57029
C          3.74612       39.41865       69.83934
C          3.72502       40.64918       70.72544
O          4.14488       41.70636       70.27317
C          5.20438       38.93116       69.58780
C          5.20050       37.71267       68.62482
C          5.88354       38.56803       70.92632
C          6.59674       37.22400       68.23546
H          3.53081       40.52522       68.02077
H          3.21038       38.58633       70.34903
H          5.77887       39.75584       69.10941
H          4.69567       37.99795       67.67745
H          4.63381       36.87086       69.07890
H          5.33883       37.73983       71.43015
H          6.93938       38.26862       70.77949
H          5.90729       39.44215       71.60535
H          6.50285       36.39502       67.50266
H          7.17468       38.04814       67.76599
H          7.15225       36.83160       69.11011
N          3.31427       40.56983       72.02398
C          3.34539       41.71731       72.92668
C          4.55918       41.63809       73.82554
O          5.26325       40.64155       73.81649
C          2.04354       41.82535       73.76474
C          0.79522       41.99909       72.89425
O          1.90140       40.72456       74.62923
H          3.07352       39.64559       72.40598
H          3.46247       42.65361       72.33841
H          2.10573       42.73199       74.40384
H          1.59642       39.94820       74.09420
H         -0.10184       42.09683       73.54298
H          0.88534       42.91219       72.27024
H          0.66242       41.11953       72.23378
N          4.89148       42.70301       74.60028
C          6.05133       42.72265       75.48408
C          5.86117       41.71301       76.60452
O          6.76772       40.94168       76.88319
C          6.25240       44.14987       76.04776
C          7.54404       44.26188       76.86442
O          6.33382       45.05209       74.97169
H          4.30113       43.54715       74.53847
H          6.96630       42.48170       74.89584
H          5.37872       44.40259       76.69588
H          5.90512       45.89886       75.26264
H          7.66518       45.30271       77.23182
H          7.52543       43.58005       77.73907
H          8.42098       44.01121       76.22797
N          4.66956       41.65655       77.26373
C          4.36816       40.74048       78.36229
C          4.63619       39.30094       77.96510
O          5.36101       38.62806       78.68556
C          2.90709       40.91925       78.83823
C          2.67750       42.33138       79.41331
C          1.24237       42.53074       79.91464
C          0.98148       43.97555       80.38480
N          1.82012       44.36263       81.52172
H          3.92688       42.29070       76.93679
H          5.02667       40.97779       79.22852
H          2.69701       40.17922       79.64239
H          2.20679       40.72756       77.99484
H          2.87253       43.10010       78.63919
H          3.38969       42.48373       80.25090
H          1.02604       41.81853       80.74028
H          0.54015       42.32013       79.07831
H         -0.08703       44.05715       80.68226
H          1.15322       44.68080       79.54079
H          1.68088       43.69822       82.31687
H          2.82814       44.39164       81.24951
H          1.54729       45.32331       81.83132
N          4.14475       38.77795       76.80458
C          4.47307       37.42573       76.35057
C          5.98262       37.25823       76.28151
O          6.51259       36.38329       76.95294
C          3.83714       37.11964       74.97434
C          2.30141       37.06184       75.04809
C          1.68901       36.73149       73.71561
O          0.91554       35.63817       73.58478
O          1.86484       37.45994       72.75306
H          3.56749       39.38520       76.20518
H          4.07811       36.68452       77.08198
H          4.20028       36.12650       74.63365
H          4.15931       37.88067       74.22899
H          1.89163       38.03046       75.39319
H          2.00304       36.28154       75.78139
N          6.74393       38.09607       75.52947
C          8.18769       38.02176       75.50749
H          8.59638       38.82136       74.85326
H          8.58697       38.17288       76.53398
H          8.51523       37.03465       75.12101
H          6.28841       38.83269       74.98049
Ca        -0.84811       35.98777       70.52647
O         -1.10142       40.01463       70.74048
H         -0.45074       39.88218       70.00644
H         -1.43078       40.94025       70.61688
O         -1.02214       38.97461       73.79512
H         -0.96726       38.15894       74.35351
H         -1.07428       39.71666       74.44804

Ca 1.0



