%chk=holoCaM-CaMKII.loop1.water2.frame402.chk
%nprocshared=20
%mem=10GB
%nosave
#b3lyp/svp scf=(tight,noincore,xqc) Test 
#IOP(5/87=12) Density=Current Pop=(MK,readradii) iop(6/33=2) iop(6/42=6)

holoCaM-CaMKII.loop1.water2.frame402 

   0  1 
C         46.45405       63.38589       57.00304
C         46.43233       62.26813       56.00419
O         46.23243       62.54069       54.83443
H         45.48521       63.92669       56.96839
H         46.61053       63.00856       58.03560
H         47.27651       64.08784       56.75298
N         46.65561       60.98456       56.39844
C         46.64481       59.82197       55.50716
C         45.22503       59.57315       55.00434
O         44.43121       58.93090       55.67751
C         47.29315       58.65772       56.27724
C         47.25360       57.29465       55.67476
O         47.68363       56.99993       54.43955
O         46.87523       56.37375       56.37792
H         46.86727       60.83495       57.39805
H         47.30629       60.01401       54.63258
H         46.82428       58.57135       57.28291
H         48.36168       58.92697       56.43034
N         44.81573       60.22333       53.87677
C         43.43086       60.32938       53.42500
C         42.91912       59.07157       52.72084
O         41.71964       58.97225       52.50411
C         43.33454       61.55141       52.47342
C         41.94830       62.19908       52.32599
C         41.38040       62.80579       53.63158
C         42.35691       63.77215       54.33777
N         41.71861       64.44725       55.46613
H         45.51321       60.81403       53.41553
H         42.83254       60.53259       54.33772
H         43.74160       61.26885       51.47732
H         44.00158       62.35874       52.83931
H         41.21901       61.48046       51.89821
H         42.06387       63.03149       51.59690
H         41.09601       62.00216       54.34234
H         40.45451       63.35762       53.36019
H         42.72160       64.53887       53.61890
H         43.23211       63.20276       54.72223
H         42.43107       65.03491       55.95791
H         40.95216       65.06839       55.11966
H         41.33402       63.74697       56.14055
N         43.77663       58.09196       52.30255
C         43.35879       56.84212       51.65996
C         43.72244       55.62230       52.50895
O         43.36525       54.51860       52.11957
C         43.88799       56.70834       50.20174
C         45.37970       56.79670       49.97794
O         46.21327       57.23613       50.93276
O         45.83420       56.52300       48.87970
H         44.77837       58.23418       52.46807
H         42.24921       56.81445       51.57420
H         43.41724       57.48431       49.56039
H         43.54219       55.72291       49.81506
N         44.35623       55.73949       53.71180
C         44.56147       54.62451       54.62053
C         45.53396       53.58248       54.11827
O         45.16537       52.41895       54.05292
H         44.63644       56.66571       54.05962
H         43.57909       54.16146       54.85735
H         44.96851       55.01740       55.57277
N         46.81454       53.92468       53.80229
C         47.85556       52.96419       53.44545
C         49.05141       52.99159       54.41096
O         49.90429       52.12488       54.28065
C         48.27068       53.15006       51.96729
C         48.86370       54.48270       51.59695
O         49.16198       54.69847       50.43457
O         49.06392       55.44352       52.50962
H         47.05259       54.91458       53.82174
H         47.44089       51.93629       53.52048
H         47.36111       53.01193       51.34409
H         49.00242       52.36138       51.69071
N         49.18754       53.92936       55.39951
C         50.26783       53.93588       56.38233
C         51.23680       55.08871       56.19503
O         52.11787       55.24696       57.02821
H         48.50304       54.68763       55.48074
H         50.86476       53.00011       56.34417
H         49.80894       53.99745       57.39317
N         51.18618       55.88283       55.08971
C         52.14454       56.93826       54.78428
C         51.43625       58.25201       54.47018
O         50.25153       58.26059       54.17074
C         53.01656       56.49574       53.56721
C         54.05794       55.45520       53.98195
O         52.23390       55.93036       52.54488
H         50.47035       55.69206       54.38516
H         52.81104       57.13356       55.65342
H         53.58766       57.35776       53.15715
H         51.47259       56.53732       52.38152
H         54.64778       55.14184       53.09269
H         54.75894       55.89720       54.72125
H         53.57871       54.55566       54.42149
N         52.14766       59.41397       54.50512
C         51.62562       60.72867       54.13973
C         52.45784       61.23000       52.96988
O         53.67538       61.27688       53.08830
C         51.70692       61.71240       55.35245
C         50.78368       61.23887       56.50744
C         51.32123       63.14663       54.91914
C         50.97718       62.03130       57.80665
H         53.13694       59.36436       54.79635
H         50.55848       60.67138       53.82843
H         52.75855       61.72851       55.71559
H         51.00396       60.17843       56.74979
H         49.71859       61.30537       56.19047
H         52.00318       63.51514       54.12805
H         50.27909       63.17494       54.53452
H         51.41479       63.87133       55.75059
H         50.30284       61.62919       58.59172
H         52.02595       61.93050       58.15927
H         50.73672       63.10618       57.68707
N         51.85948       61.66932       51.82474
C         52.60933       62.22899       50.70456
C         52.64753       63.73946       50.80062
O         51.99544       64.32733       51.65237
C         52.00734       61.82165       49.32358
C         51.95835       60.31855       49.08998
O         50.73222       62.37679       49.13365
H         50.83702       61.71659       51.80323
H         53.66177       61.87137       50.75121
H         52.65324       62.22936       48.51884
H         50.08760       61.86484       49.68362
H         51.28438       59.86973       49.83987
H         51.54762       60.11641       48.07579
H         52.97190       59.87521       49.16382
N         53.41457       64.43163       49.91911
C         53.46873       65.88658       49.85277
C         52.09829       66.45134       49.50621
O         51.73004       67.48816       50.03788
C         54.52101       66.34062       48.81418
C         55.93599       65.89946       49.22623
O         54.20548       65.81574       47.55016
H         53.97261       63.88656       49.24599
H         53.78451       66.29450       50.84001
H         54.50025       67.45432       48.77704
H         54.74699       66.31725       46.88741
H         56.67718       66.26949       48.48804
H         56.19376       66.31746       50.22243
H         56.02676       64.79422       49.27454
N         51.28472       65.79765       48.62988
C         49.92529       66.21790       48.29491
C         49.03804       66.17504       49.52802
O         48.41598       67.18078       49.84118
C         49.34672       65.31324       47.17800
C         49.86025       65.68786       45.76839
C         51.38518       65.66026       45.57824
C         51.76489       66.13231       44.16820
N         53.21684       66.15679       43.99337
H         51.64532       64.93397       48.19713
H         49.92173       67.26163       47.90891
H         48.24455       65.45886       47.13036
H         49.52530       64.24008       47.41143
H         49.50590       66.71866       45.54812
H         49.38972       65.00027       45.03185
H         51.77209       64.63300       45.75527
H         51.86143       66.36525       46.28842
H         51.36750       67.16054       44.00972
H         51.31051       65.45881       43.40917
H         53.43891       66.50820       43.03397
H         53.65370       66.80038       44.69271
H         53.60952       65.19411       44.10396
N         48.94765       65.04848       50.28945
C         48.11891       64.94742       51.49341
C         48.54367       65.93591       52.57938
O         47.81136       66.08163       53.54855
C         48.14021       63.49778       52.03476
C         47.49541       62.52703       51.02208
C         47.62719       61.08194       51.39804
O         46.53835       60.29582       51.40788
O         48.72407       60.58538       51.58818
H         49.49823       64.23580       49.99479
H         47.07146       65.19947       51.21455
H         47.58745       63.43258       52.99134
H         49.19602       63.21992       52.23442
H         47.97032       62.63334       50.03133
H         46.41883       62.77928       50.90749
N         49.68526       66.67354       52.47949
C         50.03672       67.71120       53.42161
H         51.00039       68.17804       53.12055
H         49.25518       68.50155       53.41131
H         50.13990       67.29203       54.44228
H         50.33128       66.51521       51.70311
Ca        47.72010       57.95552       52.43526
O         50.94193       57.55858       50.27709
H         51.92501       57.59021       50.15880
H         50.68257       56.66810       49.94087
O         48.44764       58.64945       49.07650
H         48.98501       59.07139       48.36068
H         47.62938       58.34031       48.61567

Ca 1.0



