%chk=holoCaM.loop4.water2.frame156.chk
%nprocshared=20
%mem=10GB
%nosave
#b3lyp/svp scf=(tight,noincore,xqc) Test 
#IOP(5/87=12) Density=Current Pop=(MK,readradii) iop(6/33=2) iop(6/42=6)

holoCaM.loop4.water2.frame156 

   -3  1 
C         -6.12497      107.16246        4.33692
C         -6.87455      106.26145        5.27318
O         -6.33946      105.22267        5.63757
H         -5.13567      106.72253        4.07963
H         -6.70078      107.33377        3.40682
H         -5.94077      108.13401        4.84518
N         -8.10254      106.62066        5.75643
C         -8.68416      105.94435        6.91106
C        -10.20450      106.12010        7.00009
O        -10.67149      107.25038        6.93727
C         -8.02005      106.55636        8.16568
C         -8.25366      105.77492        9.42178
O         -8.81991      104.69791        9.39126
O         -7.76584      106.23401       10.58813
H         -8.47675      107.54135        5.47746
H         -8.43234      104.86036        6.86669
H         -8.37917      107.60123        8.29352
H         -6.91776      106.58904        8.03422
N        -11.02739      105.04758        7.22725
C        -12.47717      105.13761        7.42875
C        -12.90759      104.69324        8.84178
O        -14.07344      104.86151        9.15876
C        -13.27071      104.30782        6.34984
C        -13.18339      102.76841        6.57654
C        -12.81708      104.69576        4.93032
C        -14.01844      101.92023        5.61366
H        -10.59270      104.13019        7.30257
H        -12.78166      106.20119        7.31936
H        -14.34461      104.57936        6.45100
H        -13.54379      102.52355        7.59611
H        -12.14905      102.43046        6.49629
H        -11.76118      104.39397        4.75707
H        -13.44901      104.20875        4.15979
H        -12.90888      105.79138        4.78384
H        -13.66174      102.01743        4.56851
H        -13.92058      100.84836        5.89415
H        -15.08964      102.20292        5.67494
N        -12.05612      104.03179        9.69286
C        -12.48284      103.39508       10.94897
C        -11.61195      103.73930       12.16354
O        -11.92024      103.24840       13.24292
C        -12.53631      101.86589       10.71198
C        -11.22846      101.26263       10.26552
O        -10.07239      101.93993       10.40547
O        -11.22426      100.16866        9.72570
H        -11.10308      103.84629        9.37972
H        -13.51836      103.70898       11.20110
H        -13.26448      101.71301        9.88554
H        -12.92625      101.31463       11.59465
N        -10.53705      104.57471       12.09140
C         -9.73615      104.97384       13.24485
C         -8.90677      103.88265       13.91841
O         -8.27972      104.20379       14.91840
H        -10.31755      105.02510       11.19750
H        -10.41833      105.42012       14.00042
H         -9.02660      105.76831       12.92934
N         -8.84712      102.59163       13.47446
C         -8.13416      101.53387       14.20197
C         -6.60809      101.68036       14.22059
O         -5.96455      100.86680       14.87055
C         -8.51583      100.13568       13.65838
C         -7.86757       99.80402       12.34257
O         -8.04101      100.51094       11.36787
O         -7.06565       98.72655       12.24459
H         -9.39656      102.33232       12.65128
H         -8.50860      101.56549       15.24971
H         -9.62182      100.06356       13.56902
H         -8.19104       99.36648       14.39255
N         -5.95360      102.66137       13.53348
C         -4.50772      102.82159       13.56708
C         -3.76416      102.02667       12.50540
O         -2.55502      102.19487       12.43411
H         -6.48756      103.36649       13.00833
H         -4.11266      102.60154       14.58465
H         -4.28183      103.89236       13.37357
N         -4.38528      101.16133       11.64525
C         -3.67570      100.44494       10.58326
C         -4.33282      100.66674        9.23363
O         -5.51497      100.38322        9.09079
C         -3.65783       98.92571       10.81716
C         -2.90530       98.50892       12.08319
C         -2.69936       97.01336       12.09123
N         -3.75057       96.16091       12.06394
O         -1.56194       96.56605       12.10218
H         -5.39511      100.99514       11.74108
H         -2.61175      100.76570       10.52852
H         -3.12481       98.47398        9.94809
H         -4.69287       98.52186       10.83707
H         -3.46672       98.83033       12.98604
H         -1.90709       99.00094       12.09393
H         -4.71859       96.51157       12.04690
H         -3.59420       95.14203       12.04777
N         -3.59159      101.07827        8.16590
C         -4.12236      101.11162        6.80441
C         -4.46532       99.68494        6.37489
O         -3.63880       98.79693        6.53000
C         -3.11034      101.73240        5.79542
C         -3.73742      101.81674        4.38852
C         -2.68064      103.15110        6.20941
H         -2.59944      101.30833        8.32077
H         -5.02661      101.76079        6.78139
H         -2.20074      101.09400        5.74391
H         -4.64609      102.45839        4.40532
H         -3.01614      102.24860        3.66377
H         -4.02023      100.81402        4.01259
H         -3.56050      103.82626        6.27691
H         -2.15542      103.15372        7.18454
H         -1.97183      103.56379        5.45936
N         -5.65611       99.41958        5.77445
C         -6.08894       98.10684        5.30419
C         -6.14833       98.12542        3.78242
O         -5.88431       99.16174        3.19096
C         -7.45939       97.81229        5.96519
C         -8.13127       96.51824        5.58142
N         -7.54329       95.32577        5.82521
O         -9.23821       96.54874        5.06394
H         -6.27912      100.20916        5.58339
H         -5.35693       97.32415        5.59784
H         -8.15414       98.64625        5.72651
H         -7.30995       97.79624        7.06282
H         -6.61613       95.27554        6.26930
H         -8.02062       94.44958        5.56587
N         -6.41000       96.99171        3.07157
C         -6.45480       96.97500        1.61224
C         -7.66857       97.71438        1.06231
O         -7.56576       98.25376       -0.03061
C         -6.34751       95.55118        1.03107
C         -7.51796       94.66510        1.36844
C         -8.62190       94.60337        0.50399
C         -7.51203       93.88108        2.53395
C         -9.70891       93.78128        0.80773
C         -8.60187       93.06371        2.83884
C         -9.70356       93.01080        1.97957
O        -10.74670       92.21525        2.28698
H         -6.50818       96.11139        3.58511
H         -5.53805       97.49506        1.25076
H         -5.40491       95.07532        1.38123
H         -6.25261       95.62375       -0.07540
H         -8.63999       95.19301       -0.40452
H         -6.66556       93.89871        3.20862
H        -10.55313       93.74489        0.13167
H         -8.58709       92.46936        3.74356
H        -11.52611       92.14893        1.71751
N         -8.85281       97.78646        1.74827
C         -9.98321       98.58676        1.26820
C         -9.70170      100.08551        1.37232
O        -10.54409      100.86865        0.95708
C        -11.28132       98.30119        2.06014
C        -11.77059       96.85464        1.91134
C        -13.14019       96.69547        2.51228
O        -13.34247       95.83323        3.52564
O        -14.08192       97.33646        2.07036
H         -8.94635       97.27037        2.63388
H        -10.17989       98.32616        0.20463
H        -12.07570       98.96321        1.64682
H        -11.15119       98.55129        3.13757
H        -11.05618       96.16225        2.40475
H        -11.83852       96.58846        0.83475
N         -8.55520      100.55608        1.93949
C         -8.26030      101.96066        2.16541
C         -7.09502      102.41317        1.29933
O         -6.75517      103.58741        1.34750
C         -7.96733      102.17249        3.67298
C         -9.04221      101.47350        4.51742
C         -8.93744      101.70961        5.98438
O         -7.87674      101.38859        6.74029
O         -9.91019      102.14427        6.55039
H         -7.85815       99.89922        2.28189
H         -9.14179      102.58005        1.88947
H         -7.93006      103.26317        3.89121
H         -6.98566      101.72769        3.93861
H         -8.99636      100.37744        4.36365
H        -10.04280      101.82881        4.17977
N         -6.45189      101.54390        0.46163
C         -5.37822      101.91607       -0.43089
H         -4.47235      101.32672       -0.17747
H         -5.67998      101.67098       -1.47194
H         -5.13728      102.99635       -0.37695
H         -6.72604      100.55566        0.42383
Ca        -8.46872      101.92233        8.83496
O         -8.46552       99.05406        8.88480
H         -9.27745       98.49037        8.91844
H         -7.81738       98.59618        9.47618
O         -5.88172      103.58382        8.69304
H         -6.38943      103.82034        7.87732
H         -5.21024      104.30474        8.78514

Ca 1.0



