%chk=holoCaM.loop4.water3.frame499.chk
%nprocshared=20
%mem=10GB
%nosave
#b3lyp/svp scf=(tight,noincore,xqc) Test 
#IOP(5/87=12) Density=Current Pop=(MK,readradii) iop(6/33=2) iop(6/42=6)

holoCaM.loop4.water3.frame499 

   -3  1 
C         94.66715       61.44586       29.17983
C         94.63217       59.97475       29.47158
O         93.85776       59.26587       28.84806
H         95.67980       61.71236       28.80428
H         93.93012       61.70971       28.39053
H         94.45175       62.03070       30.09557
N         95.50387       59.43953       30.37191
C         95.69211       58.00557       30.55342
C         95.58084       57.58021       32.01694
O         96.23465       58.16335       32.86978
C         97.06854       57.66577       29.96767
C         97.36892       56.20845       30.04983
O         98.48749       55.79003       30.67023
O         96.60577       55.39996       29.55017
H         96.15247       60.07619       30.86117
H         94.94530       57.43236       29.96000
H         97.86603       58.23903       30.48670
H         97.07099       57.95484       28.89310
N         94.79269       56.51382       32.35202
C         94.59013       55.99571       33.70806
C         95.14251       54.55883       33.85093
O         95.10178       54.04331       34.95920
C         93.04696       56.09374       34.02331
C         92.60913       57.58665       34.03054
C         92.60626       55.39316       35.32545
C         91.09191       57.80350       34.09029
H         94.29355       56.03179       31.59253
H         95.14700       56.61183       34.44828
H         92.50719       55.57170       33.21278
H         92.94950       58.07754       33.09530
H         93.08850       58.11099       34.88612
H         93.11727       55.82604       36.20905
H         91.50960       55.46441       35.46625
H         92.79036       54.30210       35.27304
H         90.59631       57.30865       33.22955
H         90.64877       57.42432       35.03128
H         90.87572       58.89183       34.04042
N         95.68300       53.84571       32.81011
C         95.97387       52.40327       32.92544
C         97.00398       51.84471       31.92296
O         97.27573       50.65374       31.99058
C         94.63016       51.64243       32.81234
C         93.93369       51.91480       31.50159
O         94.59708       52.53279       30.50042
O         92.76392       51.60042       31.35932
H         95.68392       54.28031       31.88260
H         96.40572       52.19989       33.93117
H         93.97155       52.01510       33.62751
H         94.75290       50.54837       32.96448
N         97.63690       52.62117       30.99650
C         98.66870       52.14748       30.07797
C         98.21577       51.19587       28.97297
O         99.07179       50.78316       28.20357
H         97.44993       53.62132       30.98358
H         99.47506       51.66481       30.67162
H         99.11283       53.03171       29.57025
N         96.92454       50.78298       28.82636
C         96.49433       49.78335       27.84128
C         96.48259       50.24160       26.37208
O         96.07791       49.44452       25.53636
C         95.11201       49.20562       28.23894
C         93.95953       50.17043       28.23014
O         94.11685       51.34853       27.96269
O         92.72999       49.72012       28.53983
H         96.23598       51.10928       29.50959
H         97.18782       48.91650       27.91259
H         95.18858       48.78185       29.26360
H         94.86332       48.37118       27.54887
N         96.92445       51.46451       25.95950
C         96.93229       51.87132       24.55472
C         95.56178       52.19243       23.96714
O         95.51263       52.50489       22.78499
H         97.34461       52.10289       26.64206
H         97.43083       51.08081       23.95153
H         97.53932       52.79680       24.45179
N         94.42044       52.17932       24.71407
C         93.09278       52.53210       24.20750
C         92.53415       53.72317       24.97359
O         93.19945       54.21519       25.87694
C         92.14041       51.32941       24.37261
C         92.57841       50.11856       23.54075
C         91.57933       48.99646       23.66430
N         91.34009       48.40647       24.85900
O         90.97801       48.61489       22.67120
H         94.48570       51.92737       25.70419
H         93.13364       52.81351       23.13163
H         91.12191       51.61118       24.03125
H         92.07990       51.05646       25.44950
H         93.57658       49.75857       23.86834
H         92.64762       50.42873       22.47431
H         91.84132       48.70616       25.70761
H         90.65211       47.64255       24.93516
N         91.29780       54.22852       24.67873
C         90.68249       55.32107       25.42325
C         89.43493       54.79398       26.11947
O         88.46010       54.47876       25.44881
C         90.34180       56.51033       24.47554
C         89.70411       57.68139       25.23630
C         91.58561       57.02246       23.73581
H         90.75201       53.80888       23.91007
H         91.38588       55.69430       26.19984
H         89.61366       56.16115       23.70921
H         89.44854       58.50113       24.53252
H         88.76378       57.36461       25.72437
H         90.40036       58.07895       26.00424
H         91.30330       57.85262       23.05140
H         92.34507       57.39664       24.45490
H         92.03436       56.21781       23.11775
N         89.40591       54.65840       27.47631
C         88.21883       54.24309       28.22518
C         87.18702       55.36632       28.19740
O         87.47350       56.41972       27.65688
C         88.63860       53.91263       29.68469
C         87.55131       53.36770       30.57427
N         86.91667       52.21271       30.26743
O         87.25375       53.96656       31.59668
H         90.26963       54.85586       27.99786
H         87.80929       53.31979       27.76058
H         89.06819       54.82232       30.14934
H         89.42472       53.13793       29.66139
H         87.16059       51.68532       29.41715
H         86.17909       51.84348       30.88553
N         85.95821       55.21862       28.75856
C         84.98751       56.30741       28.84997
C         85.49566       57.43290       29.75951
O         85.49340       58.57457       29.31967
C         83.58464       55.75510       29.19270
C         83.45943       54.95481       30.46565
C         83.41823       53.54908       30.40745
C         83.33346       55.59080       31.70805
C         83.27471       52.79486       31.57266
C         83.17298       54.83267       32.87376
C         83.14866       53.43533       32.81168
O         82.99874       52.72024       33.94449
H         85.69868       54.29363       29.11980
H         84.84569       56.74114       27.83276
H         83.32834       55.08040       28.34452
H         82.81790       56.55935       29.17514
H         83.50696       53.03318       29.45884
H         83.34194       56.67149       31.77166
H         83.25599       51.71400       31.50881
H         83.06534       55.33255       33.82769
H         82.97443       51.75251       33.94116
N         86.02468       57.18464       30.99850
C         86.61153       58.22396       31.86675
C         87.84974       58.91312       31.27895
O         88.36830       59.81302       31.92615
C         87.02844       57.62390       33.23707
C         85.84424       57.17750       34.10202
C         84.97884       58.34424       34.49422
O         83.80154       58.37431       34.17495
O         85.50208       59.36324       35.20430
H         86.02081       56.21046       31.33099
H         85.85284       59.01787       32.03750
H         87.59090       58.37531       33.83523
H         87.71311       56.76421       33.06231
H         86.23275       56.71233       35.03286
H         85.25582       56.41503       33.56257
N         88.37297       58.57137       30.07296
C         89.55991       59.17660       29.48333
C         89.14332       60.09176       28.34986
O         89.59992       61.22602       28.31962
C         90.52908       58.06066       29.03984
C         90.92021       57.22444       30.26425
C         91.81701       56.06416       29.99174
O         92.03887       55.28732       30.90274
O         92.40382       55.83789       28.80455
H         87.93187       57.82684       29.53313
H         90.10582       59.80667       30.22275
H         91.43472       58.50357       28.57676
H         90.03464       57.40556       28.29153
H         89.99996       56.80853       30.71893
H         91.41887       57.87099       31.01785
N         88.21047       59.70373       27.43567
C         87.69550       60.56803       26.39518
H         86.60929       60.72877       26.56529
H         88.19751       61.55697       26.37774
H         87.83011       60.08127       25.40920
H         87.79420       58.77030       27.50091
Ca        93.82548       54.13211       29.12239
O         91.54261       52.52726       28.42171
H         91.63309       52.71898       29.38844
H         91.01345       51.69279       28.38678
O         96.19629       54.20720       27.10506
H         96.18401       54.39064       26.13326
H         97.14995       54.29384       27.35785
O         94.58677       56.51525       27.01346
H         94.90053       56.68372       26.09040
H         94.81374       57.34041       27.50593

Ca 1.0



