%chk=holoCaM-CaMKII.loop3.water2.frame274.chk
%nprocshared=20
%mem=10GB
%nosave
#b3lyp/svp scf=(tight,noincore,xqc) Test 
#IOP(5/87=12) Density=Current Pop=(MK,readradii) iop(6/33=2) iop(6/42=6)

holoCaM-CaMKII.loop3.water2.frame274 

   0  1 
C         68.94065       23.04578       73.08996
C         69.71454       21.88410       73.64406
O         70.93400       21.87169       73.55603
H         68.35903       23.52847       73.90429
H         69.61895       23.80165       72.64083
H         68.23647       22.68687       72.30990
N         69.04941       20.86522       74.25182
C         69.71031       19.70572       74.84135
C         70.40692       18.88301       73.76627
O         69.80165       18.60169       72.74124
C         68.67500       18.84671       75.59989
C         69.28435       17.79137       76.49057
O         68.55288       17.07027       77.14799
O         70.61796       17.66283       76.62108
H         68.02161       20.93772       74.31956
H         70.44079       20.06576       75.59772
H         67.97769       18.37669       74.87317
H         68.08821       19.51113       76.27105
N         71.67575       18.43029       73.96586
C         72.43850       17.64339       72.99864
C         71.66650       16.41624       72.53873
O         71.50598       16.26593       71.33520
C         73.79159       17.24365       73.61822
C         74.77075       16.57574       72.64446
C         76.08180       16.24180       73.37488
C         77.12486       15.63706       72.42829
N         78.36289       15.33203       73.14698
H         72.11871       18.65066       74.86791
H         72.65004       18.28874       72.11643
H         73.59911       16.55627       74.45676
H         74.28459       18.16169       74.00528
H         74.98128       17.27746       71.80833
H         74.32930       15.64280       72.23153
H         75.87073       15.52298       74.19776
H         76.50397       17.17157       73.81664
H         77.34526       16.36158       71.61292
H         76.72374       14.70440       71.97381
H         78.17896       14.62741       73.89791
H         79.06161       14.93748       72.47676
H         78.75814       16.20252       73.57209
N         71.12178       15.52620       73.42658
C         70.34261       14.36885       72.99314
C         68.85840       14.59349       73.21249
O         68.11471       14.49897       72.24499
C         70.87587       13.00364       73.52227
C         70.77353       12.56459       74.97354
O         70.32338       13.34109       75.97169
O         71.12970       11.43092       75.25165
H         71.21146       15.71603       74.43132
H         70.45494       14.25531       71.89092
H         71.94361       12.92047       73.22392
H         70.31341       12.22882       72.95572
N         68.34723       14.90384       74.43490
C         66.92858       15.08377       74.68086
C         66.43227       13.99331       75.59230
O         65.55244       13.24670       75.18740
H         68.97955       15.02594       75.23196
H         66.34264       15.04710       73.73655
H         66.75396       16.08115       75.13751
N         66.94799       13.84613       76.84561
C         66.49252       12.82079       77.78156
C         65.77320       13.42577       78.98329
O         65.31673       12.66329       79.82491
C         67.66633       11.89805       78.20876
C         68.79363       12.54097       78.99078
N         69.79456       11.77547       79.48162
O         68.81296       13.74117       79.19596
H         67.67604       14.50667       77.15233
H         65.74631       12.16214       77.28649
H         68.10207       11.42332       77.30268
H         67.24415       11.08924       78.84325
H         69.80273       10.75682       79.32993
H         70.55719       12.20211       80.02933
N         65.62362       14.77575       79.13276
C         64.96024       15.40217       80.26484
C         65.93438       16.20156       81.11074
O         65.49395       16.85940       82.04021
H         66.01241       15.41913       78.42890
H         64.47807       14.65224       80.92974
H         64.16246       16.06784       79.87228
N         67.28071       16.12586       80.89233
C         68.29405       16.74356       81.73385
C         69.33543       17.42500       80.86488
O         69.85947       16.76596       79.97748
C         69.02898       15.63962       82.52537
C         68.10363       14.74360       83.31231
C         67.27206       15.25762       84.32095
C         68.07736       13.36479       83.03793
C         66.42821       14.40367       85.04026
C         67.23830       12.51499       83.75925
C         66.41011       13.03138       84.76439
O         65.59782       12.21948       85.47035
H         67.62688       15.51923       80.14671
H         67.84251       17.44947       82.46425
H         69.75897       16.11228       83.21840
H         69.60534       15.00884       81.81298
H         67.27546       16.31545       84.55081
H         68.70990       12.94285       82.26644
H         65.78975       14.80823       85.81531
H         67.23569       11.45552       83.53587
H         65.56405       11.26479       85.31296
N         69.75083       18.70231       81.10688
C         70.87830       19.29897       80.38494
C         72.04191       19.53629       81.34684
O         71.81678       19.76350       82.52574
C         70.45330       20.55606       79.57288
C         71.59378       20.98557       78.61239
C         69.99795       21.70672       80.48597
C         71.21983       22.12059       77.66151
H         69.30673       19.23209       81.87006
H         71.24387       18.57214       79.63056
H         69.59049       20.25531       78.93623
H         71.85502       20.11001       77.97853
H         72.49502       21.29335       79.18197
H         69.62584       22.56149       79.88689
H         69.15592       21.38555       81.13095
H         70.83466       22.05572       81.12664
H         70.31169       21.86142       77.08088
H         71.04800       23.06597       78.21326
H         72.05593       22.28610       76.95074
N         73.32570       19.42020       80.89879
C         74.51615       19.54186       81.73685
C         75.41211       20.66041       81.21781
O         75.04163       21.32989       80.26988
C         75.25237       18.18991       81.73682
O         75.66850       17.85937       80.44144
H         73.47657       19.20976       79.90619
H         74.24165       19.77477       82.78789
H         74.55179       17.41329       82.12191
H         76.13794       18.22640       82.40601
H         75.90609       16.89608       80.45769
N         76.61464       20.92512       81.80705
C         77.51923       21.97216       81.33361
C         78.01846       21.69090       79.92542
O         77.85189       22.54137       79.06047
C         78.71978       22.10681       82.27614
H         76.89053       20.37030       82.62977
H         76.98414       22.94841       81.35179
H         78.36805       22.35550       83.29960
H         79.30524       21.16438       82.31902
H         79.38375       22.92713       81.92691
N         78.64962       20.51622       79.62470
C         79.20510       20.20345       78.30472
C         78.16563       20.11032       77.19086
O         78.56079       19.89424       76.05313
C         79.97739       18.87896       78.36493
H         78.77301       19.82889       80.38474
H         79.92975       21.00411       78.03653
H         79.29204       18.04163       78.61876
H         80.45991       18.66300       77.38688
H         80.77634       18.93972       79.13355
N         76.83606       20.28776       77.42214
C         75.82287       20.24865       76.38331
C         75.40173       21.67028       76.07216
O         75.51736       22.07805       74.92471
C         74.64610       19.37607       76.84605
C         75.09628       17.93577       77.13815
C         73.93159       17.06186       77.49094
O         73.67120       16.00211       76.71810
O         73.20781       17.31284       78.43802
H         76.50401       20.48980       78.36933
H         76.22497       19.80686       75.44282
H         73.87633       19.37501       76.05086
H         74.19732       19.80919       77.76244
H         75.83441       17.92018       77.96246
H         75.58643       17.51766       76.23258
N         74.96695       22.50306       77.05866
C         74.65572       23.90224       76.85186
H         73.61458       24.10539       77.17245
H         75.34310       24.51825       77.47041
H         74.77185       24.21106       75.79241
H         74.88897       22.14800       78.01758
Ca        71.73486       14.89713       76.71687
O         72.25268       15.20700       80.65041
H         72.03425       14.27258       80.89372
H         72.12929       15.71732       81.49010
O         73.09150       12.82144       78.33260
H         73.23720       12.62531       79.29158
H         72.15517       12.54867       78.16265

Ca 1.0



