%chk=holoCaM-CaMKII.loop3.water2.frame11.chk
%nprocshared=20
%mem=10GB
%nosave
#b3lyp/svp scf=(tight,noincore,xqc) Test 
#IOP(5/87=12) Density=Current Pop=(MK,readradii) iop(6/33=2) iop(6/42=6)

holoCaM-CaMKII.loop3.water2.frame11 

   0  1 
C         45.31979       57.22431       22.24190
C         44.12642       56.32984       22.41529
O         44.08199       55.26619       21.81812
H         46.06714       56.76569       21.55968
H         44.99199       58.19246       21.80605
H         45.79799       57.41360       23.22572
N         43.10900       56.71191       23.23438
C         41.87919       55.94146       23.42156
C         41.11794       55.92391       22.10055
O         40.82210       57.00061       21.59927
C         41.03826       56.63301       24.52917
C         39.71752       56.03860       24.96991
O         38.96144       56.75348       25.60381
O         39.35288       54.75729       24.78414
H         43.22037       57.60431       23.74211
H         42.15781       54.92595       23.75790
H         40.81171       57.65613       24.15758
H         41.65395       56.74807       25.44723
N         40.77823       54.75874       21.46994
C         40.11172       54.73186       20.16643
C         38.66192       54.27385       20.23528
O         37.99462       54.36723       19.21352
C         40.90289       53.86011       19.16306
C         42.36033       54.29763       18.93126
C         42.46995       55.75810       18.47480
C         43.90410       56.13394       18.09203
N         43.97525       57.54460       17.71037
H         41.01087       53.86494       21.91724
H         40.04239       55.76130       19.75866
H         40.38199       53.88635       18.18068
H         40.90942       52.80355       19.51281
H         42.78856       53.63033       18.15090
H         42.95214       54.15811       19.85539
H         42.14527       56.42449       19.30023
H         41.81166       55.92069       17.59444
H         44.23173       55.50230       17.23637
H         44.58940       55.95078       18.94944
H         43.72165       58.14749       18.52715
H         44.94972       57.77340       17.41018
H         43.32130       57.73821       16.91692
N         38.08721       53.80458       21.37989
C         36.66183       53.48638       21.48300
C         35.97442       54.29856       22.58329
O         34.79222       54.08424       22.81476
C         36.44572       51.96492       21.61991
C         37.02692       51.31195       22.83928
O         36.87681       50.11133       22.99628
O         37.70975       52.01689       23.75675
H         38.67135       53.68079       22.21709
H         36.13369       53.75390       20.54096
H         36.88646       51.47408       20.72428
H         35.35191       51.76282       21.60777
N         36.62293       55.30323       23.24611
C         35.97392       56.19097       24.19713
C         35.63596       55.58682       25.54496
O         35.08763       56.32551       26.35195
H         37.59099       55.54003       22.99295
H         35.05335       56.60782       23.73250
H         36.65204       57.04679       24.39945
N         35.90486       54.29063       25.89080
C         35.49323       53.75952       27.19255
C         36.23684       54.40182       28.36294
O         35.78528       54.24951       29.48909
C         35.52421       52.21487       27.22008
C         36.89281       51.58008       27.27339
N         37.14712       50.59453       28.16598
O         37.76129       51.91535       26.48469
H         36.33676       53.66203       25.20199
H         34.41636       54.02413       27.29426
H         35.00757       51.85645       26.30416
H         34.93095       51.85577       28.08938
H         36.42121       50.26919       28.82180
H         38.06517       50.12821       28.18491
N         37.37134       55.14043       28.17402
C         38.03842       55.88668       29.23168
C         39.40944       55.35098       29.57526
O         40.07138       55.96931       30.39691
H         37.78472       55.19953       27.23397
H         37.44213       55.89249       30.16751
H         38.13677       56.94110       28.89058
N         39.89962       54.20665       29.02005
C         41.20697       53.64903       29.34972
C         42.06573       53.59655       28.09781
O         41.58497       53.92259       27.02114
C         41.01167       52.22181       29.90903
C         40.16421       52.17831       31.16082
C         38.89218       51.58467       31.12688
C         40.63620       52.70387       32.37417
C         38.10108       51.51998       32.27456
C         39.84751       52.62882       33.53003
C         38.57536       52.03710       33.48166
O         37.80358       51.95563       34.58430
H         39.32808       53.68724       28.33751
H         41.73543       54.27478       30.10193
H         41.98532       51.73325       30.12777
H         40.51692       51.62532       29.11567
H         38.50911       51.17412       30.21073
H         41.61818       53.15558       32.42874
H         37.12049       51.06197       32.22445
H         40.22624       53.02652       34.46262
H         38.09400       52.29188       35.44369
N         43.36083       53.18217       28.17185
C         44.21370       52.99460       27.00318
C         44.65540       51.54403       26.99574
O         45.22754       51.09404       27.97969
C         45.44349       53.95000       27.02711
C         44.98519       55.43083       27.09041
C         46.31548       53.70608       25.77163
C         46.14386       56.42218       27.24059
H         43.75623       52.96109       29.09927
H         43.65555       53.21572       26.06531
H         46.04790       53.72906       27.93485
H         44.33101       55.57125       27.97676
H         44.39719       55.68961       26.18171
H         46.66280       52.65420       25.72487
H         45.73771       53.92585       24.84661
H         47.23098       54.32812       25.77684
H         46.81600       56.41033       26.35950
H         45.74046       57.45218       27.33338
H         46.73125       56.18892       28.15426
N         44.46211       50.76696       25.89533
C         44.90945       49.38242       25.80793
C         46.10403       49.28233       24.88665
O         46.51806       50.27819       24.31486
C         43.76087       48.48299       25.32129
O         42.72954       48.47554       26.26587
H         44.04461       51.19521       25.05853
H         45.25558       49.01559       26.79860
H         44.13015       47.44268       25.18737
H         43.37858       48.85894       24.34590
H         42.07482       47.79679       25.95508
N         46.75035       48.09324       24.75026
C         47.93774       47.91263       23.92733
C         47.63198       48.13105       22.45939
O         48.28693       48.95763       21.83925
C         48.50645       46.50675       24.13652
H         46.40256       47.28837       25.29351
H         48.72268       48.63106       24.25785
H         47.76623       45.73054       23.84938
H         49.42897       46.37351       23.53319
H         48.76597       46.36864       25.20841
N         46.64788       47.41870       21.83278
C         46.34971       47.56343       20.40719
C         45.86811       48.95588       20.02809
O         45.75603       49.23385       18.84195
C         45.28047       46.55038       19.98508
H         46.11365       46.73203       22.38760
H         47.28583       47.34888       19.84650
H         45.08817       46.61736       18.89293
H         45.61775       45.51960       20.22010
H         44.32990       46.74970       20.52795
N         45.55727       49.87927       20.97424
C         45.10124       51.22300       20.67394
C         46.30105       52.14687       20.60783
O         46.42549       52.88030       19.63703
C         44.03518       51.63539       21.70263
C         42.84253       50.65363       21.63069
C         41.73018       51.10046       22.50641
O         41.93517       51.31764       23.81222
O         40.64986       51.38784       22.01473
H         45.62220       49.62772       21.96860
H         44.59210       51.26066       19.68342
H         43.68555       52.66179       21.46780
H         44.46425       51.64897       22.72900
H         43.14943       49.63242       21.93269
H         42.46366       50.62258       20.58520
N         47.27808       52.08822       21.55625
C         48.51079       52.84611       21.49478
H         49.36488       52.13921       21.40587
H         48.54264       53.53705       20.62723
H         48.63173       53.43263       22.42800
H         47.18129       51.42963       22.33580
Ca        40.68364       53.06054       24.30307
O         40.54385       50.38749       26.90007
H         40.38085       49.65151       27.54265
H         41.50950       50.58553       26.98757
O         39.61123       49.26190       24.45866
H         39.43748       48.47003       23.89135
H         38.71779       49.54083       24.78107

Ca 1.0



