%chk=holoCaM-CaMKII.loop3.water2.frame259.chk
%nprocshared=20
%mem=10GB
%nosave
#b3lyp/svp scf=(tight,noincore,xqc) Test 
#IOP(5/87=12) Density=Current Pop=(MK,readradii) iop(6/33=2) iop(6/42=6)

holoCaM-CaMKII.loop3.water2.frame259 

   0  1 
C         82.89793       -2.30758       64.70758
C         81.68431       -1.63340       65.28699
O         80.66213       -1.57322       64.61897
H         83.75016       -2.29267       65.42060
H         82.66186       -3.36774       64.47560
H         83.21179       -1.79167       63.77686
N         81.72197       -1.12250       66.54891
C         80.57625       -0.50136       67.20512
C         80.17210        0.78858       66.48836
O         81.00976        1.66579       66.32991
C         80.92042       -0.24020       68.69503
C         79.73077        0.20077       69.49927
O         79.84001        0.46714       70.68439
O         78.54310        0.30244       68.89320
H         82.59923       -1.22075       67.08319
H         79.73545       -1.22828       67.18969
H         81.72498        0.52304       68.76082
H         81.28569       -1.18565       69.15105
N         78.89805        0.96071       66.01963
C         78.47346        2.12807       65.24047
C         78.58971        3.45410       65.99898
O         78.56315        4.48432       65.33953
C         77.04188        1.88833       64.68785
C         76.54724        2.92150       63.65649
C         75.23227        2.44735       63.00965
C         74.74528        3.41299       61.91824
N         73.56206        2.88024       61.23930
H         78.22082        0.19795       66.17149
H         79.16333        2.18258       64.36834
H         76.31594        1.82358       65.52748
H         77.06375        0.90196       64.17330
H         77.31086        3.02192       62.85499
H         76.39477        3.91175       64.13683
H         74.44245        2.33648       63.78509
H         75.40895        1.45459       62.54049
H         75.55107        3.55982       61.16509
H         74.50342        4.40025       62.37065
H         72.78230        2.73777       61.92123
H         73.25214        3.55587       60.50367
H         73.79447        1.97041       60.77720
N         78.72399        3.52675       67.36027
C         78.87520        4.80473       68.06580
C         79.81958        4.74613       69.27576
O         79.97711        5.77198       69.92391
C         77.49424        5.42433       68.38855
C         76.67684        4.69794       69.41257
O         77.15778        3.61647       70.03620
O         75.56764        5.11317       69.70542
H         78.63522        2.66282       67.90849
H         79.34907        5.53647       67.37382
H         76.90763        5.48291       67.44609
H         77.64288        6.46173       68.75950
N         80.53240        3.62619       69.61006
C         81.52526        3.60706       70.67804
C         80.97790        3.69623       72.09212
O         81.79070        3.81123       72.99912
H         80.46452        2.78207       69.03115
H         82.23144        4.44891       70.50744
H         82.11268        2.66499       70.61899
N         79.64455        3.64023       72.38213
C         79.12840        3.79884       73.74497
C         79.56089        2.69150       74.71155
O         79.28596        2.82312       75.89611
C         77.58701        3.95648       73.73889
C         76.82606        2.68204       73.44265
N         75.88580        2.22820       74.30620
O         77.04350        2.06367       72.41341
H         78.97976        3.53978       71.60882
H         79.53734        4.76343       74.11997
H         77.31416        4.72806       72.98612
H         77.26536        4.34180       74.73071
H         75.66865        2.74156       75.17316
H         75.35545        1.36868       74.10008
N         80.21818        1.57273       74.28449
C         80.66393        0.49921       75.16027
C         79.98210       -0.81499       74.83559
O         80.39486       -1.83050       75.37820
H         80.41569        1.44614       73.28309
H         80.48549        0.72532       76.23474
H         81.75965        0.38499       75.01849
N         78.88591       -0.86503       74.02328
C         78.13286       -2.07971       73.74111
C         77.79673       -2.16302       72.26343
O         77.34806       -1.16337       71.71849
C         76.79835       -2.06043       74.51035
C         76.98130       -2.07780       76.00883
C         76.82478       -3.28036       76.71787
C         77.28605       -0.90063       76.71474
C         76.97422       -3.30871       78.10615
C         77.42326       -0.92908       78.10713
C         77.26731       -2.13530       78.80701
O         77.39116       -2.17938       80.14891
H         78.49658        0.01472       73.65641
H         78.67555       -2.99511       74.07023
H         76.24836       -2.98123       74.21269
H         76.15749       -1.19789       74.22337
H         76.59496       -4.20024       76.19468
H         77.40070        0.04091       76.19162
H         76.85621       -4.24472       78.63744
H         77.64587       -0.01385       78.64125
H         77.57736       -1.38956       80.67597
N         77.85512       -3.34956       71.58477
C         77.34182       -3.49644       70.21912
C         76.07665       -4.35359       70.23041
O         75.92541       -5.19747       71.10396
C         78.43491       -4.00870       69.23369
C         77.98271       -3.79638       67.76344
C         78.81599       -5.47634       69.51033
C         79.05496       -4.13313       66.72721
H         78.18785       -4.18833       72.08385
H         77.03865       -2.49264       69.85092
H         79.33607       -3.37344       69.38786
H         77.73203       -2.72036       67.63144
H         77.07876       -4.39667       67.53349
H         77.95107       -6.14823       69.32277
H         79.65491       -5.79868       68.86182
H         79.15289       -5.60923       70.55744
H         79.98787       -3.56945       66.93103
H         79.27755       -5.21867       66.71763
H         78.68628       -3.85181       65.71867
N         75.09182       -4.12714       69.31666
C         73.80581       -4.81810       69.28387
C         73.60583       -5.51055       67.94002
O         74.51863       -5.51007       67.13026
C         72.69539       -3.79301       69.57276
O         72.66816       -2.80073       68.58133
H         75.24520       -3.39420       68.61443
H         73.74858       -5.59395       70.07849
H         72.89587       -3.34983       70.57810
H         71.70009       -4.28055       69.62321
H         72.49503       -1.93769       69.04027
N         72.43601       -6.14633       67.64419
C         72.19495       -6.86819       66.39416
C         72.27338       -5.97357       65.16362
O         73.05330       -6.27265       64.27078
C         70.81892       -7.54446       66.43436
H         71.69063       -6.14601       68.35678
H         72.95380       -7.67740       66.30046
H         70.00766       -6.79277       66.54056
H         70.64987       -8.12472       65.50199
H         70.76664       -8.24385       67.29548
N         71.47108       -4.87803       65.03459
C         71.45813       -4.01846       63.84865
C         72.82343       -3.42499       63.57796
O         73.31627       -3.52254       62.46282
C         70.44821       -2.87789       64.03253
H         70.83624       -4.64956       65.81520
H         71.13405       -4.60891       62.96295
H         69.43067       -3.29242       64.19119
H         70.71567       -2.24402       64.90558
H         70.42594       -2.23789       63.12354
N         73.49652       -2.81024       64.58307
C         74.81359       -2.19668       64.43955
C         75.82357       -3.20241       63.90231
O         76.62943       -2.84259       63.05567
C         75.28267       -1.64451       65.79833
C         74.32506       -0.57030       66.37373
C         74.78157       -0.15878       67.73369
O         74.94659       -1.00077       68.59913
O         75.06289        1.11747       68.02203
H         73.04848       -2.82176       65.51004
H         74.75615       -1.33971       63.73174
H         76.29669       -1.20147       65.68784
H         75.35645       -2.49787       66.50473
H         73.29778       -0.95945       66.49506
H         74.28506        0.30961       65.69669
N         75.78597       -4.50302       64.30018
C         76.66653       -5.51858       63.76658
H         77.71987       -5.28757       64.02154
H         76.40235       -6.50866       64.19862
H         76.55197       -5.57957       62.66322
H         75.07351       -4.79542       64.97461
Ca        76.59920        1.07959       69.62023
O         74.54299       -0.64194       71.78647
H         73.57696       -0.52410       71.60781
H         74.62322       -1.57047       72.12076
O         74.25844        2.36834       71.20351
H         73.44900        2.32604       71.77165
H         73.97851        2.88361       70.40617

Ca 1.0



