%chk=holoCaM.loop3.water2.frame188.chk
%nprocshared=20
%mem=10GB
%nosave
#b3lyp/svp scf=(tight,noincore,xqc) Test 
#IOP(5/87=12) Density=Current Pop=(MK,readradii) iop(6/33=2) iop(6/42=6)

holoCaM.loop3.water2.frame188 

   0  1 
C         36.69385       66.60756       62.98474
C         37.74713       67.61650       62.63614
O         38.44273       67.42797       61.64816
H         35.97337       66.52008       62.14485
H         37.16952       65.62175       63.16634
H         36.13502       66.90440       63.89755
N         37.91224       68.73103       63.40065
C         38.89676       69.75945       63.09370
C         40.30053       69.18440       63.20939
O         40.69535       68.76813       64.29008
C         38.69298       70.94984       64.04333
C         39.51785       72.15277       63.72380
O         40.27544       72.18504       62.76614
O         39.38690       73.22905       64.51156
H         37.28811       68.86449       64.21200
H         38.70339       70.11552       62.05680
H         38.90489       70.63263       65.08760
H         37.63121       71.27441       63.98514
N         41.07829       69.06565       62.09977
C         42.36104       68.37169       62.09437
C         43.44727       69.17724       62.79396
O         44.12358       68.62561       63.65038
C         42.73056       67.99468       60.64185
C         43.82497       66.91606       60.54834
C         43.91796       66.37395       59.10843
C         44.82662       65.14004       58.97215
N         46.23243       65.44305       59.23315
H         40.68452       69.38019       61.19923
H         42.21939       67.39523       62.61214
H         42.99415       68.88733       60.03857
H         41.81712       67.53536       60.20475
H         43.53450       66.06566       61.20406
H         44.79751       67.32122       60.89833
H         44.24435       67.17567       58.41158
H         42.90217       66.04145       58.79789
H         44.73285       64.75401       57.93237
H         44.47781       64.33755       59.66070
H         46.36652       65.75762       60.21970
H         46.79542       64.57431       59.08332
H         46.56698       66.17886       58.56986
N         43.64992       70.49663       62.49621
C         44.71663       71.31234       63.08687
C         44.21078       72.34796       64.09457
O         45.02264       73.11448       64.59568
C         45.57544       71.95276       61.97215
C         44.87250       72.96947       61.10737
O         43.58058       73.29404       61.30401
O         45.49463       73.52081       60.21400
H         43.00878       70.94202       61.82549
H         45.40980       70.66361       63.66659
H         45.96605       71.14198       61.31928
H         46.44859       72.45674       62.44198
N         42.91615       72.36527       64.52220
C         42.45057       73.19912       65.62326
C         42.28715       74.68266       65.33549
O         41.90724       75.38183       66.26488
H         42.26364       71.65865       64.16111
H         43.13755       73.06451       66.48777
H         41.45706       72.82752       65.94880
N         42.53414       75.25674       64.11993
C         42.39429       76.70266       63.90938
C         40.95287       77.22985       64.03820
O         40.78974       78.44188       64.06147
C         43.06391       77.15409       62.58639
C         42.57640       76.45749       61.30710
N         43.23360       77.02854       60.13688
O         41.20494       76.57840       61.15937
H         42.87977       74.66872       63.35091
H         42.97617       77.20587       64.71445
H         44.15252       76.94449       62.66150
H         42.94271       78.25548       62.48560
H         42.97349       78.04005       60.06028
H         42.85022       76.55561       59.28877
N         39.87201       76.40161       64.13598
C         38.49360       76.85120       64.33840
C         37.57065       76.51528       63.17337
O         36.38307       76.78756       63.27212
H         40.02668       75.39482       64.06486
H         38.44410       77.95049       64.49484
H         38.10629       76.36405       65.25890
N         38.06191       75.99043       62.01749
C         37.29842       75.77098       60.78981
C         37.49867       74.33280       60.19787
O         38.35665       73.53284       60.96833
C         37.81872       76.76881       59.73672
C         37.72012       78.20736       60.19523
C         38.88830       78.95126       60.44195
C         36.47029       78.82106       60.37749
C         38.80956       80.27790       60.86934
C         36.39329       80.15542       60.79423
C         37.56458       80.88712       61.04322
O         37.50753       82.17288       61.44508
H         39.06286       75.84037       61.97600
H         36.21755       75.97170       60.96111
H         37.27129       76.65098       58.77666
H         38.88551       76.52619       59.54624
H         39.86425       78.50797       60.31075
H         35.55764       78.27089       60.18757
H         39.71940       80.83330       61.06167
H         35.42405       80.62002       60.92221
H         36.66808       82.63804       61.56797
N         36.22405       73.64027       59.97055
C         36.35126       72.34549       59.25859
C         36.23669       72.52461       57.74175
O         35.24963       73.07386       57.27640
C         35.26821       71.36517       59.79747
C         35.46914       71.16806       61.32680
C         35.34208       70.00987       59.05850
C         34.40183       70.30483       61.99909
H         35.52515       74.26234       59.50089
H         37.32835       71.86640       59.49134
H         34.26386       71.80981       59.61848
H         35.44022       72.15591       61.83410
H         36.46495       70.71572       61.51685
H         34.54789       69.31858       59.40217
H         35.18037       70.14147       57.96876
H         36.33280       69.53075       59.21487
H         34.41192       69.26578       61.61468
H         34.60866       70.25641       63.08947
H         33.39680       70.75157       61.84724
N         37.19656       72.00940       56.91644
C         37.14610       72.06427       55.45501
C         37.02073       70.65738       54.88000
O         36.95244       69.70174       55.63193
C         38.40300       72.77215       54.92995
O         38.42365       74.09022       55.40223
H         37.99060       71.51205       57.33588
H         36.25623       72.63307       55.10968
H         38.38608       72.78802       53.81775
H         39.31425       72.23229       55.27265
H         39.11643       74.56624       54.87433
N         36.93234       70.47409       53.52743
C         36.69807       69.16989       52.91339
C         37.80973       68.17904       53.19249
O         37.51932       67.12873       53.75357
C         36.51440       69.31756       51.39668
H         36.97155       71.30034       52.91605
H         35.74325       68.76278       53.31566
H         37.42658       69.73495       50.92035
H         36.29288       68.32817       50.94077
H         35.66215       69.99681       51.18355
N         39.09594       68.40809       52.79491
C         40.14269       67.40291       52.95561
C         40.39313       67.04297       54.40896
O         40.91151       65.96357       54.65528
C         41.45201       67.84655       52.29735
H         39.31907       69.29681       52.31881
H         39.79552       66.48403       52.42984
H         41.84013       68.76518       52.78717
H         42.21740       67.04454       52.37758
H         41.28225       68.05715       51.21986
N         40.06689       67.89398       55.42553
C         40.22291       67.51833       56.82550
C         39.24130       66.40844       57.14445
O         39.66268       65.33585       57.55624
C         40.01358       68.72489       57.76970
C         41.08531       69.80759       57.53869
C         41.00954       70.90757       58.56049
O         42.07399       71.17705       59.33793
O         39.99867       71.57617       58.68260
H         39.69434       68.82671       55.19897
H         41.26227       67.15691       56.99990
H         40.10423       68.35989       58.81501
H         38.99838       69.15977       57.64328
H         40.97055       70.24806       56.52596
H         42.09407       69.34415       57.60479
N         37.90829       66.59034       56.93819
C         36.93226       65.55114       57.17586
H         35.91801       65.92055       56.91078
H         37.15923       64.66662       56.54285
H         36.93907       65.25920       58.24638
H         37.57239       67.49249       56.57605
Ca        40.42013       74.47843       60.71419
O         39.77945       74.88046       57.79495
H         40.15601       74.02535       57.46974
H         40.39153       75.57520       57.44456
O         42.83976       74.25865       57.95063
H         43.31028       73.69739       58.61486
H         43.50826       74.93697       57.68055

Ca 1.0



