%chk=holoCaM.loop2.water2.frame228.chk
%nprocshared=20
%mem=10GB
%nosave
#b3lyp/svp scf=(tight,noincore,xqc) Test 
#IOP(5/87=12) Density=Current Pop=(MK,readradii) iop(6/33=2) iop(6/42=6)

holoCaM.loop2.water2.frame228 

   -2  1 
C         52.12542       83.35658       38.65350
C         51.03119       84.28111       39.09331
O         49.93774       84.18972       38.55271
H         53.05717       83.52513       39.23221
H         51.79936       82.30573       38.80812
H         52.33605       83.51663       37.57604
N         51.23916       85.18609       40.09298
C         50.17107       86.04302       40.58810
C         49.72023       87.00360       39.49520
O         50.51064       87.83617       39.07187
C         50.62244       86.78631       41.86375
C         49.47440       87.41281       42.59913
O         48.22530       87.32123       42.10984
O         49.66290       87.91866       43.69053
H         52.16488       85.21984       40.54788
H         49.34329       85.36368       40.88115
H         51.40746       87.53905       41.63392
H         51.05500       86.03432       42.56090
N         48.48156       86.87934       38.93457
C         48.08108       87.60831       37.73654
C         47.63557       89.03890       37.99195
O         47.57272       89.78426       37.02365
C         46.99296       86.83637       36.98779
H         47.88260       86.11397       39.26225
H         48.96461       87.63874       37.05945
H         46.74782       87.33909       36.02866
H         47.36046       85.81193       36.75946
H         46.07502       86.75633       37.60799
N         47.31909       89.50659       39.23697
C         47.05191       90.92344       39.49983
C         48.12014       91.51740       40.41114
O         48.09363       92.72118       40.62772
C         45.62391       91.17211       40.03649
C         45.36297       90.59893       41.39808
O         45.06284       91.41892       42.42385
O         45.38273       89.39398       41.57503
H         47.31422       88.84878       40.02902
H         47.11431       91.49753       38.54981
H         44.87614       90.76663       39.32097
H         45.46439       92.27239       40.09254
N         49.11869       90.75052       40.94468
C         50.22239       91.29275       41.70865
C         49.78157       91.97102       42.97903
O         50.06389       93.15125       43.13017
H         49.15406       89.73882       40.77027
H         50.78111       92.00788       41.06554
H         50.91834       90.46802       41.97802
N         49.12513       91.27920       43.95666
C         48.76563       91.87720       45.24424
C         49.50426       91.22807       46.41518
O         49.39146       91.74152       47.51931
C         47.23890       91.85392       45.46102
C         46.70318       90.47697       45.76248
N         46.04950       90.22541       46.92092
O         46.86169       89.57960       44.95703
H         48.90016       90.29172       43.77983
H         49.06654       92.94677       45.23820
H         46.73500       92.26448       44.55920
H         46.99451       92.52307       46.31323
H         45.89973       90.96821       47.61825
H         45.68568       89.28325       47.12314
N         50.27921       90.11303       46.25701
C         51.07805       89.52020       47.31680
C         50.70022       88.08664       47.63708
O         51.50049       87.43033       48.28915
H         50.35916       89.66709       45.33619
H         51.04934       90.10918       48.25853
H         52.13019       89.52762       46.95896
N         49.49204       87.54506       47.29488
C         49.10717       86.17258       47.64180
C         48.58009       85.41382       46.42512
O         48.52104       85.96818       45.33722
C         48.10080       86.17479       48.82606
C         48.76085       86.64769       50.13316
O         46.95088       86.92704       48.53419
H         48.79064       88.14143       46.82945
H         49.99289       85.59502       47.98772
H         47.77603       85.13608       49.03871
H         47.16977       87.88697       48.66067
H         49.62838       85.99575       50.37671
H         49.11581       87.69582       50.05208
H         48.03377       86.57920       50.96974
N         48.20257       84.10805       46.55007
C         47.76376       83.25041       45.45319
C         46.29952       82.86772       45.63742
O         45.91982       82.38278       46.69439
C         48.71922       82.01506       45.35913
C         50.07981       82.48848       44.77235
C         48.12687       80.87457       44.50670
C         51.15024       81.40039       44.67486
H         48.25228       83.66841       47.48086
H         47.83028       83.77787       44.48527
H         48.86427       81.59684       46.37998
H         50.48924       83.30416       45.40532
H         49.91596       82.89844       43.74936
H         48.78836       79.98591       44.50803
H         47.16762       80.52203       44.93769
H         47.96633       81.20066       43.46431
H         50.84566       80.58659       43.98587
H         52.08135       81.84264       44.26085
H         51.36658       80.98134       45.67874
N         45.44321       82.99191       44.57797
C         44.05026       82.55808       44.56517
C         43.94942       81.20614       43.87799
O         44.96704       80.67412       43.46875
C         43.19724       83.58618       43.78744
C         43.23884       84.95238       44.39805
O         42.77837       85.14896       45.64770
O         43.66540       85.89681       43.75322
H         45.82840       83.30783       43.67861
H         43.66520       82.43941       45.60176
H         42.13515       83.26751       43.75456
H         43.57028       83.64349       42.73858
N         42.75308       80.57334       43.73119
C         42.60976       79.26812       43.08939
C         43.08551       79.27458       41.62973
O         43.93661       78.45055       41.33019
C         41.16730       78.73941       43.26722
C         40.91338       77.42309       42.56838
C         41.70077       76.28894       42.83907
C         39.86458       77.32046       41.63700
C         41.44495       75.08037       42.18283
C         39.60726       76.10853       40.99135
C         40.39789       74.98974       41.26198
H         41.91055       81.02823       44.11611
H         43.25580       78.54576       43.63864
H         40.42981       79.48655       42.92552
H         40.98551       78.60422       44.35564
H         42.51355       76.33651       43.55169
H         39.23907       78.17625       41.41463
H         42.05716       74.21226       42.38996
H         38.79317       76.03765       40.28162
H         40.19763       74.05259       40.75911
N         42.63308       80.14467       40.66679
C         43.13117       80.16922       39.28950
C         44.64492       80.15871       39.19437
O         45.21406       79.38748       38.43484
C         42.61582       81.51744       38.75251
C         41.30224       81.65646       39.47298
C         41.66969       81.20572       40.88368
H         42.68654       79.32039       38.72470
H         43.24715       82.35774       39.12381
H         42.57476       81.58932       37.64499
H         40.83191       82.66155       39.41914
H         40.60733       80.90710       39.03124
H         42.16050       82.01438       41.46578
H         40.73720       80.88292       41.37365
N         45.34576       81.02847       39.96040
C         46.78985       81.21497       39.93463
C         47.50086       79.93233       40.33531
O         48.40139       79.50667       39.62597
C         47.14148       82.40825       40.85168
C         46.46950       83.70317       40.32462
C         46.60411       84.87288       41.24369
O         47.31387       84.78530       42.37995
O         46.04190       85.91943       40.96292
H         44.79332       81.59836       40.61799
H         47.12234       81.49805       38.91056
H         48.24286       82.55969       40.89721
H         46.76819       82.18955       41.87096
H         45.37911       83.56887       40.20064
H         46.88960       83.95914       39.32912
N         47.10305       79.22681       41.42732
C         47.70073       77.96841       41.81442
H         48.76559       78.11875       42.08562
H         47.16166       77.55202       42.69360
H         47.62108       77.23750       40.98130
H         46.31543       79.56855       41.98056
Ca        46.38030       87.49143       43.38639
O         45.27783       86.65055       46.20346
H         45.50645       85.69601       46.07854
H         46.13764       87.12408       46.08459
O         43.81188       88.78471       44.39847
H         43.02944       88.94331       44.98273
H         44.18797       89.68536       44.23872

Ca 1.0



