%chk=holoCaM-CaMKII.loop4.water2.frame119.chk
%nprocshared=20
%mem=10GB
%nosave
#b3lyp/svp scf=(tight,noincore,xqc) Test 
#IOP(5/87=12) Density=Current Pop=(MK,readradii) iop(6/33=2) iop(6/42=6)

holoCaM-CaMKII.loop4.water2.frame119 

   -3  1 
C         40.47580       33.96656       65.01226
C         40.85757       32.94931       66.04822
O         41.50733       33.31231       67.01668
H         39.85582       34.75987       65.48036
H         41.39185       34.42371       64.58362
H         39.89260       33.50648       64.18668
N         40.46930       31.64997       65.91618
C         40.78369       30.61432       66.89611
C         42.28650       30.39304       66.98791
O         42.88233       29.82148       66.08605
C         40.00688       29.32963       66.53206
C         40.36371       28.06212       67.26381
O         40.66377       27.08085       66.60296
O         40.35010       27.94868       68.60662
H         39.89520       31.40075       65.09577
H         40.40904       30.96111       67.88303
H         40.16247       29.12201       65.44963
H         38.92457       29.53664       66.67908
N         42.96093       30.87955       68.06659
C         44.39087       30.72282       68.28916
C         44.69596       29.28024       68.68638
O         45.52204       28.65686       68.03460
C         44.90647       31.74359       69.37279
C         44.64892       33.20791       68.89833
C         46.40947       31.53013       69.65423
C         45.11445       34.29853       69.87118
H         42.42690       31.43746       68.73942
H         44.93812       30.97793       67.35302
H         44.36175       31.57738       70.32804
H         43.56149       33.36288       68.75135
H         45.15382       33.38150       67.92314
H         46.60406       30.50121       70.01941
H         47.00984       31.70884       68.73719
H         46.76785       32.20560       70.45760
H         46.21690       34.30113       69.98616
H         44.82763       35.29436       69.46924
H         44.64492       34.17083       70.86677
N         44.11910       28.71507       69.79147
C         44.63510       27.48637       70.40449
C         44.07898       26.17260       69.85514
O         44.63354       25.14050       70.20707
C         44.53563       27.57339       71.94574
C         43.13919       27.63774       72.51211
O         42.15442       27.59169       71.79342
O         42.97851       27.75620       73.84372
H         43.46678       29.30092       70.33173
H         45.72764       27.45313       70.19507
H         45.07476       28.49107       72.26874
H         45.05184       26.69961       72.39695
N         43.01958       26.10775       69.00087
C         42.59025       24.86664       68.35722
C         41.23679       24.34786       68.79942
O         40.76307       23.40530       68.17894
H         42.52907       26.97355       68.75330
H         43.31315       24.04019       68.52462
H         42.56395       25.05514       67.26260
N         40.56891       24.85206       69.87632
C         39.28082       24.31636       70.32453
C         38.12260       24.61572       69.37076
O         37.01236       24.20461       69.67711
C         38.95068       24.77847       71.77076
C         38.87504       26.26215       72.02614
O         39.12779       27.07735       71.15721
O         38.55894       26.69586       73.26049
H         41.02449       25.58652       70.43385
H         39.36518       23.20826       70.39587
H         39.72934       24.37285       72.45106
H         37.98051       24.32504       72.07256
N         38.28460       25.29456       68.19668
C         37.17384       25.61772       67.31660
C         36.28348       26.70394       67.88187
O         35.26910       26.99095       67.25935
H         39.21575       25.58499       67.89240
H         36.59044       24.69374       67.10991
H         37.56417       25.99633       66.34682
N         36.60608       27.37970       69.02520
C         35.78903       28.43459       69.60316
C         36.55646       29.74858       69.62466
O         37.76603       29.75068       69.42644
C         35.39648       28.07277       71.05447
C         34.83899       26.65302       71.24674
C         33.60262       26.37736       70.43659
N         33.58364       25.36764       69.53414
O         32.60337       27.05877       70.60669
H         37.47854       27.15709       69.50910
H         34.86963       28.56855       68.99177
H         34.67211       28.82364       71.43838
H         36.30800       28.12244       71.68747
H         34.60181       26.50959       72.32295
H         35.63329       25.92172       70.99218
H         34.41346       24.77606       69.38193
H         32.73448       25.17005       68.98564
N         35.89605       30.91960       69.83050
C         36.53801       32.23145       69.88406
C         35.96148       33.00814       71.06113
O         34.74736       33.15997       71.12033
C         36.33856       32.97334       68.53095
C         36.85638       34.42160       68.58638
C         37.09262       32.23665       67.40512
H         34.86544       30.88410       69.89285
H         37.63352       32.13269       70.01704
H         35.25518       33.00684       68.28320
H         36.70465       34.91959       67.60492
H         36.30329       35.01157       69.34613
H         37.93857       34.44569       68.82682
H         36.96105       32.75966       66.43470
H         38.18145       32.19974       67.63192
H         36.72452       31.19847       67.28059
N         36.77156       33.56753       72.01031
C         36.26843       34.34971       73.13769
C         36.61207       35.82554       72.96270
O         37.17893       36.19291       71.94327
C         36.73946       33.77114       74.50518
C         38.17746       34.03631       74.90343
N         39.21354       33.42398       74.29453
O         38.40221       34.79052       75.83864
H         37.78790       33.48535       71.89849
H         35.15872       34.29176       73.16274
H         36.52325       32.68303       74.56311
H         36.10818       34.24438       75.28649
H         39.05563       32.73998       73.55008
H         40.18038       33.60621       74.60401
N         36.28758       36.72964       73.92933
C         36.55213       38.16774       73.86061
C         38.00562       38.47103       73.55151
O         38.26372       39.29780       72.68884
C         36.18500       38.81555       75.21364
C         36.48950       40.29489       75.24797
C         35.81947       41.18712       74.39505
C         37.46203       40.78990       76.13375
C         36.11648       42.55326       74.43129
C         37.75899       42.15400       76.16602
C         37.08524       43.04151       75.31531
O         37.36016       44.36106       75.33887
H         35.83361       36.37203       74.78264
H         35.92328       38.62048       73.06165
H         36.76588       38.29856       76.01024
H         35.10680       38.65774       75.43114
H         35.06786       40.82636       73.70428
H         37.99747       40.11981       76.79548
H         35.59307       43.23306       73.77100
H         38.51332       42.51839       76.85196
H         38.02078       44.73737       75.93801
N         39.00310       37.85599       74.23812
C         40.41781       38.11594       73.99707
C         40.77204       37.80953       72.55240
O         41.30385       38.67406       71.86904
C         41.30441       37.25804       74.93866
C         41.06768       37.49819       76.44708
C         41.41923       38.87699       76.94376
O         41.23062       39.17007       78.24410
O         41.88712       39.72662       76.20286
H         38.73140       37.16244       74.94567
H         40.62798       39.18851       74.18906
H         42.37748       37.44821       74.71466
H         41.10492       36.18279       74.73645
H         41.69109       36.77356       77.01307
H         40.01057       37.29065       76.70675
N         40.49242       36.58664       72.02308
C         40.84460       36.19996       70.65672
C         40.08219       36.99817       69.59858
O         40.42276       36.88775       68.42859
C         40.54801       34.70382       70.43949
C         41.30782       33.78626       71.41595
C         40.86637       32.37077       71.23145
O         41.74549       31.40601       70.95951
O         39.68869       32.07642       71.30864
H         40.02432       35.90447       72.63661
H         41.93555       36.37271       70.51990
H         40.80571       34.40920       69.39849
H         39.45607       34.55931       70.58328
H         41.10222       34.05746       72.46461
H         42.39910       33.87370       71.25001
N         39.02085       37.78832       69.91957
C         38.27599       38.54687       68.94003
H         37.44313       39.08799       69.44098
H         38.93877       39.29257       68.45383
H         37.84431       37.86645       68.17639
H         38.70389       37.84234       70.88842
Ca        40.76853       29.61046       70.04183
O         40.83207       30.33177       74.01385
H         41.49158       30.13135       73.30383
H         41.24105       31.07206       74.52842
O         37.69200       29.94907       73.07593
H         37.96540       30.62590       73.74295
H         37.27365       29.23286       73.61632

Ca 1.0



