%chk=holoCaM.loop2.water2.frame125.chk
%nprocshared=20
%mem=10GB
%nosave
#b3lyp/svp scf=(tight,noincore,xqc) Test 
#IOP(5/87=12) Density=Current Pop=(MK,readradii) iop(6/33=2) iop(6/42=6)

holoCaM.loop2.water2.frame125 

   -2  1 
C        109.76967       92.05343      -19.34106
C        111.12875       91.76001      -19.91679
O        111.89712       91.04202      -19.29781
H        109.20841       91.10404      -19.20887
H        109.87028       92.56064      -18.36029
H        109.17565       92.70867      -20.01493
N        111.47783       92.26975      -21.12674
C        112.73060       91.97505      -21.81486
C        113.95598       92.50722      -21.08074
O        114.00741       93.69491      -20.79345
C        112.66809       92.58672      -23.22561
C        113.89917       92.27732      -24.00961
O        114.56956       93.18448      -24.47502
O        114.27671       90.99701      -24.18290
H        110.78345       92.85939      -21.61246
H        112.81581       90.87224      -21.93739
H        112.52915       93.68872      -23.16119
H        111.79955       92.15853      -23.76754
N        115.01469       91.67971      -20.81935
C        116.26215       92.12196      -20.19995
C        117.49548       91.90727      -21.08487
O        118.55241       92.38043      -20.68940
C        116.46062       91.37193      -18.87774
H        114.93424       90.69188      -21.08546
H        116.20630       93.20935      -19.97820
H        115.59794       91.54995      -18.20230
H        116.54715       90.27850      -19.06325
H        117.38444       91.71561      -18.36417
N        117.47303       91.17564      -22.24339
C        118.67762       90.90544      -23.04252
C        118.53376       91.24191      -24.52718
O        119.51330       91.10920      -25.24838
C        119.10363       89.43156      -22.85272
C        118.10576       88.38862      -23.29611
O        117.03927       88.69384      -23.80473
O        118.40165       87.08730      -23.12057
H        116.59445       90.72548      -22.52492
H        119.52311       91.52373      -22.66989
H        119.30271       89.27290      -21.77125
H        120.05477       89.25343      -23.40034
N        117.35702       91.66488      -25.06194
C        117.16567       91.97935      -26.46708
C        117.45548       90.79699      -27.36031
O        118.29040       90.92766      -28.24421
H        116.54971       91.77697      -24.44975
H        117.81392       92.83853      -26.74765
H        116.10887       92.28598      -26.62902
N        116.79700       89.61270      -27.19602
C        117.01394       88.45511      -28.06335
C        115.74719       88.05392      -28.82192
O        115.75344       87.01920      -29.47472
C        117.64986       87.28546      -27.28007
C        116.81629       86.59646      -26.23516
N        117.32770       85.50458      -25.62119
O        115.69456       86.98722      -25.95214
H        116.11127       89.53247      -26.42945
H        117.76772       88.69422      -28.84410
H        118.58673       87.64287      -26.79810
H        117.92949       86.50583      -28.02096
H        118.27149       85.16383      -25.85387
H        116.78579       84.97778      -24.93046
N        114.65047       88.86703      -28.85257
C        113.45142       88.59865      -29.63381
C        112.54150       87.51199      -29.08757
O        111.48474       87.32325      -29.67081
H        114.69267       89.78062      -28.38277
H        113.73188       88.37919      -30.68701
H        112.83879       89.52656      -29.63886
N        112.85349       86.76976      -27.98685
C        111.95975       85.76359      -27.40861
C        111.69831       86.07311      -25.93625
O        112.25785       87.02560      -25.41743
C        112.57839       84.34568      -27.59635
C        112.61425       83.97448      -29.08190
O        113.88970       84.24473      -27.08960
H        113.76101       86.91011      -27.53016
H        110.96841       85.77115      -27.91204
H        111.93577       83.58826      -27.09794
H        113.97350       84.81137      -26.28175
H        113.00232       82.94069      -29.20303
H        111.59205       84.01389      -29.51645
H        113.27414       84.66623      -29.64687
N        110.87178       85.27709      -25.19162
C        110.66485       85.46381      -23.75734
C        111.32988       84.30256      -23.04674
O        110.92590       83.16319      -23.23038
C        109.15052       85.58290      -23.40095
C        108.54321       86.84376      -24.06891
C        108.95431       85.62265      -21.86848
C        107.04313       87.02355      -23.81853
H        110.41814       84.46874      -25.64103
H        111.15887       86.39750      -23.41230
H        108.62309       84.68184      -23.78603
H        108.69229       86.77888      -25.16767
H        109.06354       87.75184      -23.70217
H        109.46286       86.50484      -21.42586
H        107.88163       85.64209      -21.59436
H        109.35431       84.70369      -21.39830
H        106.48052       86.13765      -24.17963
H        106.82511       87.18879      -22.74371
H        106.68503       87.92278      -24.36231
N        112.39240       84.53809      -22.22768
C        113.09205       83.49700      -21.49711
C        112.26945       83.07653      -20.28779
O        111.23959       83.67529      -20.03339
C        114.49906       83.99087      -21.07435
C        115.43005       84.17559      -22.25733
O        115.30767       85.17703      -23.15916
O        116.35510       83.39145      -22.39661
H        112.70608       85.50172      -22.10039
H        113.23491       82.61370      -22.15835
H        114.95043       83.19574      -20.44478
H        114.44957       84.91774      -20.46035
N        112.65240       82.03136      -19.50388
C        111.90970       81.59972      -18.31992
C        111.88378       82.68026      -17.23362
O        110.78600       82.99377      -16.79674
C        112.46497       80.25677      -17.79451
C        111.81821       79.81089      -16.50267
C        110.44356       79.52080      -16.43277
C        112.60509       79.68124      -15.34468
C        109.87331       79.10476      -15.22352
C        112.03124       79.26853      -14.14069
C        110.66687       78.97851      -14.07949
H        113.49868       81.50756      -19.77451
H        110.85598       81.38826      -18.61555
H        113.55390       80.32590      -17.64647
H        112.31282       79.47468      -18.56954
H        109.81503       79.61145      -17.30952
H        113.66474       79.90328      -15.37188
H        108.81612       78.87839      -15.17159
H        112.64697       79.17324      -13.25573
H        110.22620       78.65597      -13.14502
N        113.00512       83.30302      -16.73778
C        112.97409       84.35489      -15.72115
C        111.94087       85.42971      -16.00989
O        111.17288       85.80487      -15.13601
C        114.38516       84.97037      -15.80908
C        115.22619       83.77217      -16.16198
C        114.35992       83.08818      -17.21057
H        112.80921       83.89374      -14.72230
H        114.46201       85.65428      -16.68584
H        114.70562       85.53502      -14.90839
H        116.26144       83.99363      -16.50055
H        115.27190       83.11948      -15.26111
H        114.46305       83.57255      -18.20257
H        114.67698       82.03548      -17.25565
N        111.89757       85.96447      -17.25362
C        111.03180       87.05431      -17.68711
C        109.57242       86.63269      -17.67331
O        108.74333       87.37711      -17.17005
C        111.48681       87.50489      -19.09289
C        112.94827       88.02102      -19.02584
C        113.57156       88.22883      -20.36212
O        112.87224       88.05094      -21.49167
O        114.77876       88.39518      -20.42775
H        112.54576       85.55659      -17.94438
H        111.16277       87.93856      -17.02407
H        110.83219       88.31367      -19.48474
H        111.42026       86.63309      -19.78327
H        113.60074       87.26388      -18.55140
H        113.02430       88.93754      -18.40691
N        109.19070       85.43100      -18.18237
C        107.81823       84.97587      -18.19577
H        107.20751       85.63757      -18.84414
H        107.77004       83.94089      -18.60053
H        107.40479       84.96825      -17.16517
H        109.90525       84.79794      -18.54587
Ca       114.15616       87.10062      -23.03363
O        113.23360       89.53257      -26.25083
H        113.49098       90.44746      -26.52621
H        112.24518       89.55251      -26.23804
O        111.29705       89.36917      -23.69076
H        110.61115       90.06805      -23.83041
H        110.96260       88.85502      -22.91529

Ca 1.0



