%chk=holoCaM.loop4.water3.frame108.chk
%nprocshared=20
%mem=10GB
%nosave
#b3lyp/svp scf=(tight,noincore,xqc) Test 
#IOP(5/87=12) Density=Current Pop=(MK,readradii) iop(6/33=2) iop(6/42=6)

holoCaM.loop4.water3.frame108 

   -3  1 
C         -3.06966       11.87565       45.13879
C         -3.88056       10.66939       44.76607
O         -3.32739        9.73480       44.20559
H         -2.00662       11.74536       44.84007
H         -3.47808       12.77704       44.63934
H         -3.10541       12.01784       46.24053
N         -5.20221       10.60449       45.09805
C         -6.00489        9.39870       44.92269
C         -7.45287        9.75836       44.57746
O         -8.03401       10.58644       45.26492
C         -5.93475        8.59299       46.23533
C         -6.45076        7.18618       46.11013
O         -6.79857        6.73599       45.03184
O         -6.46215        6.38803       47.19308
H         -5.59729       11.38412       45.64636
H         -5.55931        8.76367       44.12351
H         -6.48307        9.13429       47.03466
H         -4.87211        8.49988       46.54974
N         -8.10818        9.14435       43.54847
C         -9.47374        9.47122       43.11661
C        -10.43120        8.30268       43.38017
O        -11.59331        8.39904       43.01783
C         -9.43775        9.81681       41.58110
C         -8.35867       10.86911       41.22793
C        -10.79544       10.26605       40.99287
C         -8.55418       12.24670       41.85739
H         -7.61564        8.39868       43.03912
H         -9.86251       10.34798       43.67719
H         -9.14097        8.89110       41.03703
H         -8.32143       10.98825       40.12198
H         -7.37553       10.48592       41.54574
H        -11.55552        9.46513       41.00338
H        -11.19695       11.14550       41.53677
H        -10.67846       10.52638       39.91981
H         -8.53205       12.18078       42.96326
H         -7.72458       12.90897       41.53145
H         -9.50791       12.70562       41.52848
N        -10.03608        7.16162       44.00993
C        -10.85456        5.95615       43.99881
C        -10.46151        4.97089       45.10303
O        -11.34864        4.59543       45.85792
C        -10.85593        5.31982       42.58070
C         -9.49803        5.09913       41.96390
O         -8.39351        5.66310       42.48919
O         -9.40256        4.41843       40.95588
H         -9.09742        7.10280       44.41475
H        -11.91399        6.22082       44.21980
H        -11.41808        5.96170       41.86838
H        -11.39564        4.34970       42.64508
N         -9.18513        4.51573       45.28243
C         -8.80799        3.57943       46.33601
C         -8.19911        2.29316       45.80191
O         -7.88613        1.43254       46.61254
H         -8.43218        4.85870       44.68012
H         -9.69001        3.29539       46.95071
H         -8.07914        4.07377       47.01210
N         -8.03421        2.06151       44.46591
C         -7.58865        0.77531       43.92315
C         -6.18173        0.33834       44.33331
O         -5.91364       -0.84965       44.23034
C         -7.73702        0.75301       42.38139
C         -6.95813        1.83245       41.67485
O         -6.17560        2.67201       42.37160
O         -7.12719        2.01818       40.48127
H         -8.32114        2.79215       43.80000
H         -8.28975        0.01016       44.32510
H         -8.81087        0.93441       42.15343
H         -7.45973       -0.24016       41.97203
N         -5.22587        1.21578       44.75727
C         -3.88594        0.80418       45.17584
C         -2.77241        1.27728       44.25169
O         -1.61957        1.00906       44.56615
H         -5.44906        2.21527       44.78429
H         -3.80529       -0.30254       45.22990
H         -3.70992        1.19859       46.19871
N         -3.02222        1.92983       43.08234
C         -2.00569        2.33051       42.11301
C         -2.06194        3.82721       41.84551
O         -2.93292        4.50476       42.37902
C         -2.25882        1.55097       40.79966
C         -1.92722        0.05797       40.96111
C         -2.23991       -0.73751       39.71714
N         -2.93847       -1.89529       39.79820
O         -1.83158       -0.35456       38.63064
H         -3.99329        2.11740       42.82435
H         -0.98063        2.10567       42.48442
H         -1.61149        1.94072       39.98529
H         -3.31885        1.69351       40.48894
H         -2.47201       -0.37816       41.82575
H         -0.83763       -0.02276       41.15939
H         -3.25351       -2.26214       40.70841
H         -3.13318       -2.45018       38.95140
N         -1.15512        4.40777       41.00550
C         -1.16840        5.81705       40.62923
C         -1.45419        5.91859       39.14154
O         -0.62455        5.52892       38.32864
C          0.17604        6.50556       41.02393
C          0.36787        7.88635       40.36956
C          0.26195        6.67358       42.54786
H         -0.42603        3.81271       40.57883
H         -1.98766        6.35238       41.15743
H          1.02048        5.86791       40.67931
H          1.33270        8.33475       40.69058
H          0.41924        7.79382       39.26589
H         -0.45594        8.57521       40.64118
H          1.23977        7.11672       42.83430
H         -0.53735        7.36273       42.89749
H          0.15234        5.69933       43.06610
N         -2.63805        6.44691       38.72451
C         -2.98427        6.70045       37.32880
C         -2.13565        7.84368       36.79029
O         -1.39302        8.45092       37.54822
C         -4.49932        7.03527       37.27378
C         -5.11610        7.30487       35.92610
N         -5.05573        6.39213       34.93121
O         -5.72066        8.35059       35.74512
H         -3.33469        6.68324       39.44581
H         -2.79970        5.77570       36.73968
H         -4.69987        7.90509       37.93560
H         -5.03140        6.16244       37.68451
H         -4.56854        5.49557       35.06517
H         -5.50004        6.58816       34.02174
N         -2.17725        8.18312       35.47442
C         -1.44965        9.32706       34.93422
C         -2.06135       10.63988       35.41194
O         -1.31723       11.58019       35.65000
C         -1.29098        9.21049       33.40395
C         -2.58223        9.16985       32.62712
C         -3.30034       10.34601       32.36718
C         -3.06341        7.94636       32.12842
C         -4.48195       10.29790       31.62025
C         -4.25305        7.89819       31.39989
C         -4.96561        9.07199       31.14060
O         -6.10864        9.01023       30.42913
H         -2.72643        7.59406       34.83612
H         -0.40170        9.28012       35.31041
H         -0.74448        8.25539       33.23473
H         -0.63701       10.01415       33.00072
H         -2.93860       11.30055       32.72846
H         -2.52476        7.02522       32.31553
H         -5.02221       11.21400       31.41875
H         -4.61825        6.94664       31.03456
H         -6.63040        9.79922       30.22542
N         -3.40917       10.76709       35.60858
C         -4.02606       11.96774       36.17900
C         -3.77928       12.08712       37.68766
O         -4.14377       13.10642       38.25678
C         -5.54691       12.00935       35.90643
C         -5.85360       11.98338       34.40216
C         -7.31849       12.15880       34.13311
O         -7.94517       11.28947       33.54874
O         -7.94277       13.29136       34.50941
H         -4.01116        9.97936       35.34567
H         -3.58574       12.85596       35.67333
H         -5.95026       12.95694       36.32853
H         -6.05657       11.15703       36.40825
H         -5.52254       11.01420       33.98243
H         -5.30591       12.80313       33.88890
N         -3.15099       11.10073       38.39231
C         -2.79833       11.18170       39.80704
C         -1.28963       11.31628       39.97495
O         -0.84563       11.47113       41.10451
C         -3.25571        9.89887       40.53474
C         -4.76793        9.67710       40.46240
C         -5.19343        8.34966       41.03763
O         -4.38821        7.59196       41.55395
O         -6.47886        7.96966       40.93771
H         -2.86671       10.25190       37.90109
H         -3.26349       12.07682       40.27617
H         -2.94888        9.93384       41.60278
H         -2.74758        9.03387       40.05598
H         -5.09198        9.69332       39.40316
H         -5.26929       10.50280       41.00254
N         -0.43836       11.25958       38.90838
C          0.99841       11.37657       39.00985
H          1.46404       10.44373       38.62760
H          1.33567       12.22681       38.38047
H          1.33782       11.54539       40.05141
H         -0.80018       11.11244       37.96246
Ca        -6.38794        4.84255       41.99355
O         -3.43098        6.79804       44.03843
H         -3.58561        7.11936       44.96015
H         -2.45742        6.63395       43.99578
O         -4.85760        4.58879       45.04560
H         -3.97288        4.18505       45.23033
H         -5.42381        4.31008       45.80847
O         -6.43549        4.99155       39.17615
H         -7.36064        4.80715       39.46816
H         -5.92710        4.16779       39.38381

Ca 1.0



