%chk=holoCaM-CaMKII.loop1.water2.frame138.chk
%nprocshared=20
%mem=10GB
%nosave
#b3lyp/svp scf=(tight,noincore,xqc) Test 
#IOP(5/87=12) Density=Current Pop=(MK,readradii) iop(6/33=2) iop(6/42=6)

holoCaM-CaMKII.loop1.water2.frame138 

   0  1 
C         17.11382       39.21339       73.89784
C         15.67596       39.30533       74.28735
O         15.38492       39.49924       75.45900
H         17.76447       39.36319       74.78533
H         17.31637       38.21963       73.45161
H         17.33752       40.00925       73.15516
N         14.70815       39.22985       73.33533
C         13.31329       39.45367       73.66240
C         12.75116       38.26373       74.43859
O         12.80848       37.16019       73.91303
C         12.49779       39.74133       72.37924
C         11.23024       40.47275       72.70737
O         10.43229       40.74258       71.82925
O         11.05194       40.94662       73.95479
H         14.98900       39.11557       72.34842
H         13.29536       40.37986       74.26613
H         12.30139       38.80042       71.82045
H         13.06566       40.42828       71.71263
N         12.19693       38.40360       75.68395
C         11.74921       37.26346       76.49011
C         10.23004       37.14305       76.60813
O          9.79623       36.11693       77.11541
C         12.35890       37.32567       77.90998
C         13.89378       37.27401       77.99585
C         14.47370       35.95517       77.45706
C         15.95135       35.74500       77.83468
N         16.83431       36.77305       77.28425
H         12.10501       39.34635       76.08219
H         12.06317       36.31621       76.00181
H         11.96914       36.47565       78.51294
H         12.01602       38.26489       78.39837
H         14.14877       37.35141       79.07598
H         14.34183       38.14396       77.47363
H         14.35139       35.90836       76.35392
H         13.91166       35.10855       77.90849
H         16.26956       34.75049       77.44989
H         16.05115       35.72481       78.94328
H         16.60793       37.70900       77.68929
H         17.82067       36.53810       77.54141
H         16.75278       36.79962       76.24254
N          9.35817       38.09214       76.15296
C          7.90008       37.89176       76.13666
C          7.36055       37.89863       74.69870
O          6.17010       37.68064       74.52366
C          7.18630       38.90395       77.07674
C          7.32611       40.33147       76.64402
O          6.99980       41.24804       77.37915
O          7.81875       40.57848       75.42855
H          9.73722       38.97113       75.77404
H          7.65218       36.88877       76.54799
H          7.64633       38.79338       78.08341
H          6.10427       38.66661       77.16754
N          8.18922       38.06840       73.61905
C          7.76958       37.88602       72.23762
C          6.95934       39.00580       71.60985
O          6.58911       38.83409       70.45665
H          9.19962       38.19779       73.76163
H          7.21355       36.92627       72.16175
H          8.68186       37.78475       71.61027
N          6.64405       40.16970       72.24981
C          5.82454       41.20597       71.61214
C          6.48032       41.86783       70.39165
O          5.78352       42.58942       69.69263
C          5.36231       42.26822       72.63915
C          6.45936       43.09137       73.25157
O          7.62012       42.93385       72.92518
O          6.15277       44.02106       74.17453
H          6.94080       40.29609       73.22302
H          4.89890       40.70227       71.25548
H          4.82615       41.74915       73.46198
H          4.65023       42.96617       72.14948
N          7.79732       41.68635       70.07785
C          8.43169       42.23005       68.88181
C          9.50587       43.26275       69.16642
O         10.16084       43.66826       68.21471
H          8.38424       41.11876       70.69593
H          7.69272       42.70835       68.20418
H          8.88686       41.38037       68.32878
N          9.71481       43.78531       70.41007
C         10.69505       44.83282       70.68959
C         11.64799       44.42059       71.79676
O         11.46218       43.38289       72.41554
C          9.97954       46.16073       71.05757
C          9.15116       46.71402       69.88943
O          9.18724       46.01553       72.21040
H          9.12686       43.46691       71.18630
H         11.31989       45.02434       69.78916
H         10.74366       46.93610       71.27806
H          8.35919       45.52831       71.96057
H          8.68793       47.67969       70.18379
H          9.80667       46.89156       69.01039
H          8.34550       46.00693       69.60022
N         12.71919       45.20637       72.08238
C         13.71185       44.92066       73.10935
C         13.68917       46.07428       74.09162
O         13.87917       47.21088       73.67555
C         15.10205       44.73213       72.43385
C         15.06449       43.48241       71.51034
C         16.22797       44.60013       73.48131
C         16.27640       43.36508       70.58576
H         12.85905       46.06252       71.52150
H         13.47443       43.98122       73.65368
H         15.30574       45.63563       71.81656
H         14.18022       43.53328       70.84133
H         14.96907       42.56024       72.12722
H         16.27753       45.50505       74.12140
H         16.06302       43.71359       74.13048
H         17.21992       44.51044       72.99533
H         16.16154       42.46479       69.94523
H         16.33158       44.25763       69.92622
H         17.22422       43.26290       71.14856
N         13.47261       45.85477       75.41881
C         13.41753       46.93149       76.40062
C         14.76249       47.09510       77.07126
O         15.67388       46.33256       76.79559
C         12.30705       46.66498       77.45121
C         10.93866       46.49039       76.80133
O         12.61274       45.51032       78.18688
H         13.38903       44.88529       75.75503
H         13.19639       47.89511       75.89036
H         12.25922       47.54048       78.13871
H         12.07380       45.54719       79.01980
H         10.67085       47.38783       76.20768
H         10.94857       45.59574       76.14504
H         10.16908       46.34081       77.58897
N         14.96263       48.10731       77.95384
C         16.21481       48.30990       78.67483
C         16.44452       47.13270       79.62321
O         17.52386       46.55962       79.62958
C         16.16658       49.66090       79.43300
C         17.52766       50.02830       80.02685
O         15.81084       50.68666       78.53618
H         14.18344       48.76251       78.11771
H         17.04756       48.38909       77.93880
H         15.42371       49.59802       80.26469
H         14.87059       50.94353       78.72802
H         18.28332       50.11855       79.21501
H         17.45605       51.01081       80.54063
H         17.86805       49.26672       80.75663
N         15.40985       46.68215       80.39262
C         15.44465       45.52340       81.29183
C         15.97777       44.28395       80.58122
O         16.93094       43.68389       81.05737
C         13.99808       45.27140       81.79431
C         13.81968       44.11153       82.78541
C         12.31731       43.89777       83.04762
C         12.05061       42.76261       84.04242
N         10.61195       42.52865       84.18560
H         14.51050       47.17831       80.29087
H         16.10076       45.75107       82.16074
H         13.36219       45.06672       80.90827
H         13.61600       46.19788       82.27781
H         14.35549       44.34467       83.73101
H         14.23447       43.17424       82.35624
H         11.82483       43.64459       82.08199
H         11.86289       44.83446       83.43970
H         12.48496       43.02885       85.03142
H         12.53360       41.82752       83.68282
H         10.20448       42.23484       83.26745
H         10.45334       41.76424       84.88088
H         10.13171       43.39611       84.51875
N         15.40650       43.86016       79.42268
C         15.83687       42.68923       78.65990
C         17.30204       42.78930       78.27643
O         18.04846       41.87052       78.58460
C         14.94174       42.53550       77.41029
C         13.52775       42.07501       77.82451
C         12.54204       42.02945       76.69777
O         11.29506       41.58611       76.94002
O         12.84187       42.40058       75.57621
H         14.62960       44.42302       79.05403
H         15.71852       41.76792       79.27437
H         15.35949       41.76955       76.72368
H         14.91312       43.50284       76.86325
H         13.10161       42.74735       78.59620
H         13.61021       41.05267       78.25516
N         17.79026       43.88245       77.63261
C         19.18201       44.04342       77.26404
H         19.79368       43.15164       77.51521
H         19.25418       44.22244       76.17136
H         19.60380       44.91926       77.80098
H         17.15494       44.65422       77.41624
Ca         9.32514       42.04732       74.80853
O          8.61954       44.99885       75.27956
H          8.51384       45.98167       75.23534
H          9.02358       44.75340       74.41077
O          9.29713       43.46370       77.69612
H          8.76779       42.90043       78.31308
H          9.98124       43.88422       78.27424

Ca 1.0



