%chk=holoCaM.loop2.water1.frame16.chk
%nprocshared=20
%mem=10GB
%nosave
#b3lyp/svp scf=(tight,noincore,xqc) Test 
#IOP(5/87=12) Density=Current Pop=(MK,readradii) iop(6/33=2) iop(6/42=6)

holoCaM.loop2.water1.frame16 

   -2  1 
C         68.79538        1.49067       19.50393
C         68.99723        0.83218       18.17197
O         68.42419        1.28771       17.19228
H         67.72304        1.45947       19.78228
H         69.38795        0.98836       20.29806
H         69.13001        2.54816       19.44009
N         69.84237       -0.22720       18.05130
C         70.16773       -0.82346       16.76569
C         68.95597       -1.53580       16.15936
O         68.35301       -2.35945       16.83267
C         71.40852       -1.73964       16.90686
C         72.03973       -2.00922       15.56990
O         71.39394       -1.62722       14.46007
O         73.11655       -2.56870       15.49233
H         70.33412       -0.56415       18.89408
H         70.49419        0.00975       16.10669
H         71.17349       -2.68047       17.45253
H         72.17498       -1.18078       17.48600
N         68.55913       -1.26565       14.87842
C         67.36602       -1.81642       14.23936
C         67.67449       -2.83568       13.14236
O         66.72774       -3.34849       12.56108
C         66.55053       -0.65472       13.65715
H         69.12902       -0.62243       14.32017
H         66.73878       -2.34416       14.99024
H         67.14032       -0.12614       12.87529
H         65.60847       -1.02277       13.19791
H         66.29223        0.07172       14.45601
N         68.94730       -3.22467       12.83848
C         69.26960       -4.27323       11.87101
C         69.90251       -5.47897       12.56669
O         70.15899       -6.46729       11.89234
C         70.28576       -3.74905       10.83331
C         69.87837       -2.47221       10.14088
O         70.56852       -1.33355       10.37958
O         68.94153       -2.46502        9.35955
H         69.72705       -2.79846       13.34151
H         68.34913       -4.61676       11.35168
H         70.50244       -4.52408       10.06677
H         71.23839       -3.57797       11.36668
N         70.23356       -5.45851       13.89420
C         70.92595       -6.54050       14.56887
C         72.26157       -6.82482       13.92444
O         72.50915       -7.97202       13.58043
H         70.03018       -4.63346       14.47341
H         70.29354       -7.45534       14.57562
H         71.10762       -6.24207       15.62479
N         73.16123       -5.81939       13.70555
C         74.46697       -6.04339       13.07839
C         75.63592       -5.56805       13.93879
O         76.76711       -5.88050       13.59439
C         74.51396       -5.38995       11.68260
C         74.57434       -3.88609       11.73250
N         75.59242       -3.21638       11.14941
O         73.69805       -3.26332       12.30169
H         72.87600       -4.86333       13.95911
H         74.60340       -7.13462       12.92055
H         73.61492       -5.70065       11.10663
H         75.40710       -5.76430       11.13849
H         76.35160       -3.71155       10.66146
H         75.61149       -2.19103       11.17610
N         75.45226       -4.77758       15.03674
C         76.52274       -4.33446       15.90984
C         76.81768       -2.84717       15.82233
O         77.58349       -2.39233       16.66061
H         74.51163       -4.47389       15.29836
H         77.47503       -4.86640       15.69886
H         76.22843       -4.59559       16.94960
N         76.35749       -2.04409       14.80849
C         76.79702       -0.64952       14.65329
C         75.61658        0.31837       14.53008
O         74.47387       -0.11039       14.60610
C         77.78790       -0.52805       13.46436
C         78.92288       -1.55797       13.55657
O         77.11910       -0.68391       12.24668
H         75.76915       -2.45179       14.06734
H         77.37196       -0.33209       15.55055
H         78.24402        0.48747       13.50672
H         77.68236       -0.25221       11.55113
H         78.52243       -2.59096       13.46438
H         79.64636       -1.39923       12.72971
H         79.46084       -1.46262       14.52308
N         75.83708        1.65848       14.36521
C         74.79427        2.68493       14.36833
C         74.73381        3.42203       13.02925
O         75.74944        3.91086       12.55434
C         75.05642        3.65830       15.56331
C         74.84607        2.88220       16.89399
C         74.14702        4.90200       15.50753
C         75.09399        3.70341       18.15970
H         76.80886        1.99223       14.28766
H         73.79613        2.23689       14.54013
H         76.10524        4.02608       15.50364
H         75.53822        2.01412       16.92328
H         73.80391        2.49278       16.93566
H         74.31217        5.46869       14.56924
H         73.08352        4.61238       15.58545
H         74.38706        5.61392       16.32168
H         74.95357        3.05205       19.04817
H         76.12891        4.10292       18.16573
H         74.36838        4.53712       18.25134
N         73.51691        3.62908       12.43665
C         73.27880        4.44782       11.24731
C         72.61511        5.75748       11.66505
O         72.42405        5.96526       12.84873
C         72.33820        3.69523       10.27786
C         72.89179        2.38708        9.80941
O         72.21362        1.24883       10.05117
O         73.93387        2.35031        9.17541
H         72.67971        3.26968       12.91431
H         74.23413        4.69804       10.73607
H         72.14267        4.30987        9.37520
H         71.36518        3.50985       10.78746
N         72.24521        6.70038       10.75263
C         71.57518        7.95348       11.11159
C         70.21123        7.74731       11.78829
O         70.03417        8.32867       12.85018
C         71.48727        8.88832        9.88633
C         70.82914       10.22492       10.17717
C         71.24716       11.03554       11.25278
C         69.79032       10.68359        9.34762
C         70.62611       12.26528       11.49638
C         69.18617       11.92227        9.58461
C         69.59980       12.71008       10.66070
H         72.46160        6.52776        9.75879
H         72.22988        8.48232       11.83909
H         70.96336        8.37764        9.05104
H         72.52892        9.08902        9.55325
H         72.04349       10.72142       11.91331
H         69.45715       10.09092        8.50520
H         70.94336       12.87655       12.33193
H         68.39718       12.27229        8.93173
H         69.12705       13.66642       10.84506
N         69.20751        6.94147       11.30157
C         67.91248        6.75772       11.96714
C         67.99155        6.00941       13.29826
O         66.94837        5.77229       13.89175
C         67.08715        5.98515       10.93046
C         68.14362        5.15310       10.24321
C         69.27689        6.16228       10.08251
H         67.41047        7.73152       12.15822
H         66.21372        5.42626       11.33223
H         66.71486        6.70752       10.16952
H         68.46981        4.36773       10.96244
H         67.83007        4.65746        9.30071
H         70.20889        5.58676        9.96475
H         69.11645        6.84025        9.21681
N         69.18002        5.64574       13.84754
C         69.33847        4.96733       15.12251
C         69.94859        5.95388       16.10886
O         69.37862        6.15715       17.17142
C         70.19963        3.70546       14.90552
C         69.55916        2.78736       13.84435
C         70.38842        1.59076       13.49087
O         71.53990        1.31940       14.13069
O         70.01614        0.85808       12.58925
H         70.04495        5.85226       13.34670
H         68.35771        4.63916       15.53437
H         70.32696        3.15721       15.86476
H         71.19721        4.01381       14.53850
H         69.43518        3.35854       12.90249
H         68.55917        2.44726       14.19064
N         71.05924        6.67408       15.78518
C         71.60167        7.71588       16.62739
H         72.46088        8.20180       16.11343
H         70.82894        8.49402       16.80870
H         71.95016        7.29163       17.58965
H         71.51541        6.52477       14.88431
Ca        71.79699       -1.42148       12.26908
O         74.53720        0.16920       11.28284
H         74.72642       -0.03489       10.33217
H         75.08823        0.96806       11.47648

Ca 1.0



