%chk=holoCaM.loop2.water1.frame81.chk
%nprocshared=20
%mem=10GB
%nosave
#b3lyp/svp scf=(tight,noincore,xqc) Test 
#IOP(5/87=12) Density=Current Pop=(MK,readradii) iop(6/33=2) iop(6/42=6)

holoCaM.loop2.water1.frame81 

   -2  1 
C         -7.42909       29.78717        8.47599
C         -7.67133       30.79199        7.38436
O         -7.13716       30.62553        6.29912
H         -7.97536       30.05574        9.40536
H         -7.78915       28.78916        8.14393
H         -6.34607       29.72501        8.70449
N         -8.51390       31.84084        7.58898
C         -8.89750       32.77231        6.53510
C         -7.76559       33.72203        6.14539
O         -7.29992       34.46961        6.99404
C        -10.10807       33.60686        7.00525
C        -10.69717       34.45635        5.91627
O        -11.71340       35.28998        6.20313
O        -10.29232       34.37261        4.76865
H         -8.97568       31.91830        8.50877
H         -9.23922       32.17355        5.66294
H         -9.79846       34.25805        7.85068
H        -10.91358       32.92923        7.36264
N         -7.32628       33.78596        4.85472
C         -6.36463       34.75818        4.35542
C         -6.96128       35.52424        3.16895
O         -6.36450       35.52715        2.10095
C         -5.07769       34.01984        3.95856
H         -7.70681       33.12703        4.17662
H         -6.10302       35.49256        5.14684
H         -5.28546       33.27449        3.15921
H         -4.31494       34.73917        3.59055
H         -4.65996       33.48599        4.83788
N         -8.14462       36.20133        3.29019
C         -8.76497       36.96952        2.20200
C        -10.01768       37.71769        2.67796
O        -10.01359       38.93844        2.59342
C         -9.00116       36.13426        0.90778
C         -9.59644       34.75893        1.07772
O        -10.84447       34.58406        1.53196
O         -8.95031       33.77903        0.74193
H         -8.61463       36.18522        4.20675
H         -8.04978       37.76780        1.89565
H         -8.01488       35.98764        0.41896
H         -9.60160       36.72821        0.18460
N        -11.10505       37.08206        3.20642
C        -12.28738       37.77431        3.71301
C        -13.58735       37.34901        3.04330
O        -14.62773       37.84297        3.45429
H        -11.08764       36.06585        3.30641
H        -12.19250       38.87609        3.60176
H        -12.37132       37.55572        4.79812
N        -13.61938       36.47465        1.99558
C        -14.84242       36.11508        1.27194
C        -15.81819       35.19992        2.03244
O        -16.82997       34.83569        1.44803
C        -14.48201       35.52280       -0.11039
C        -13.75392       34.20507       -0.11461
N        -13.43082       33.64568       -1.30143
O        -13.45630       33.63903        0.92584
H        -12.72613       36.13289        1.62422
H        -15.38379       37.05698        1.03043
H        -13.84867       36.26118       -0.65021
H        -15.41732       35.39215       -0.69547
H        -13.67153       34.11398       -2.18623
H        -12.94713       32.74432       -1.34733
N        -15.62710       34.82303        3.33042
C        -16.59388       34.03355        4.08926
C        -16.59591       32.53640        3.80665
O        -17.37315       31.84531        4.44739
H        -14.82424       35.19913        3.84573
H        -17.61289       34.45729        3.94571
H        -16.34879       34.13191        5.16848
N        -15.75739       31.95490        2.90265
C        -15.69585       30.50999        2.65283
C        -14.28503       29.98158        2.90405
O        -13.41145       30.74236        3.27370
C        -16.14816       30.22097        1.19327
C        -17.65188       30.45314        1.03504
O        -15.45923       31.02912        0.27277
H        -15.12516       32.55314        2.36005
H        -16.36395       29.94476        3.33844
H        -15.99639       29.15137        0.93048
H        -14.50612       30.75582        0.29723
H        -18.21102       29.78670        1.72848
H        -17.92077       31.50738        1.25108
H        -17.96456       30.20558       -0.00191
N        -13.99485       28.66727        2.67810
C        -12.65213       28.09648        2.73930
C        -12.20251       27.84680        1.31199
O        -12.90046       27.17991        0.56277
C        -12.63773       26.80605        3.62635
C        -12.66591       27.22553        5.12180
C        -11.40799       25.91428        3.33812
C        -12.71046       26.05880        6.11278
H        -14.74855       28.04496        2.35526
H        -11.92228       28.80941        3.17463
H        -13.53072       26.19078        3.37861
H        -13.55602       27.86312        5.30656
H        -11.75685       27.82825        5.34905
H        -10.46695       26.44358        3.57086
H        -11.44516       24.97276        3.92056
H        -11.39234       25.59264        2.27592
H        -11.80551       25.42136        6.04036
H        -12.73666       26.45952        7.14830
H        -13.61599       25.44139        5.94270
N        -10.99428       28.33089        0.89787
C        -10.43994       28.09769       -0.42702
C         -9.42065       26.97346       -0.35916
O         -9.18250       26.43900        0.70892
C         -9.82472       29.39906       -0.99171
C        -10.87656       30.41055       -1.35797
O        -11.59966       31.07032       -0.43613
O        -11.07472       30.66062       -2.53593
H        -10.38762       28.80388        1.58219
H        -11.22569       27.73554       -1.12498
H         -9.28990       29.15113       -1.93149
H         -9.07569       29.83864       -0.29568
N         -8.82929       26.51958       -1.50326
C         -7.92766       25.37157       -1.54391
C         -6.71445       25.53833       -0.63627
O         -6.50629       24.63338        0.16394
C         -7.54001       25.03482       -3.00275
C         -6.50550       23.93574       -3.07355
C         -6.75198       22.66946       -2.51332
C         -5.26626       24.18423       -3.68876
C         -5.76962       21.67590       -2.56087
C         -4.29069       23.18620       -3.73952
C         -4.54048       21.93394       -3.17360
H         -9.06814       26.98004       -2.39222
H         -8.48968       24.48589       -1.17150
H         -7.15919       25.93275       -3.52058
H         -8.45426       24.72385       -3.55316
H         -7.69610       22.45299       -2.03030
H         -5.05190       25.15199       -4.12555
H         -5.96017       20.70645       -2.11944
H         -3.33916       23.38682       -4.21426
H         -3.78082       21.16441       -3.20899
N         -5.86270       26.60891       -0.65594
C         -4.75246       26.76858        0.27561
C         -5.17061       26.56469        1.72233
O         -4.50710       25.85421        2.46106
C         -4.32683       28.23333        0.07816
C         -4.62291       28.44777       -1.38346
C         -5.97751       27.76163       -1.53071
H         -3.93056       26.07424       -0.01080
H         -5.01546       28.91879        0.62431
H         -3.28925       28.45963        0.40322
H         -4.60114       29.50412       -1.72626
H         -3.86867       27.86557       -1.96092
H         -6.81538       28.39857       -1.17209
H         -6.10132       27.51459       -2.59708
N         -6.28597       27.19694        2.17416
C         -6.73692       27.19070        3.56050
C         -7.16798       25.80647        4.02159
O         -7.09746       25.53778        5.21279
C         -7.91238       28.17291        3.73851
C         -7.57778       29.60177        3.26438
C         -8.75450       30.51550        3.37426
O         -9.88384       30.13412        4.00179
O         -8.70659       31.60642        2.83601
H         -6.82074       27.73218        1.47986
H         -5.90027       27.54939        4.20022
H         -8.21632       28.19720        4.80873
H         -8.76650       27.81058        3.13144
H         -7.30994       29.60529        2.19212
H         -6.71551       30.02240        3.82239
N         -7.67231       24.89735        3.14031
C         -8.12545       23.57113        3.50304
H         -9.19532       23.46146        3.22515
H         -7.53537       22.81806        2.93891
H         -8.01748       23.36699        4.58781
H         -7.75324       25.15141        2.15254
Ca       -11.22290       31.30256        1.75219
O        -12.96006       33.07451        4.44091
H        -13.34711       33.89676        4.82385
H        -12.80138       32.49455        5.22739

Ca 1.0



