%chk=holoCaM-CaMKII.loop4.water2.frame101.chk
%nprocshared=20
%mem=10GB
%nosave
#b3lyp/svp scf=(tight,noincore,xqc) Test 
#IOP(5/87=12) Density=Current Pop=(MK,readradii) iop(6/33=2) iop(6/42=6)

holoCaM-CaMKII.loop4.water2.frame101 

   -3  1 
C         43.15650       38.30352       52.45177
C         44.19871       38.19091       53.52199
O         44.86305       39.17725       53.80687
H         42.41381       39.07421       52.74895
H         43.63203       38.59846       51.49491
H         42.62066       37.34160       52.30674
N         44.37084       37.02037       54.19379
C         45.29356       36.89499       55.30839
C         46.74816       37.02357       54.84940
O         47.18058       36.24783       54.00821
C         45.04173       35.57179       56.04999
C         45.82309       35.58941       57.31237
O         46.68615       34.76026       57.50363
O         45.63111       36.59664       58.18312
H         43.76905       36.21732       53.95199
H         45.04296       37.70866       56.02226
H         45.31555       34.70178       55.41226
H         43.96806       35.48890       56.32496
N         47.54899       38.00673       55.35854
C         48.89074       38.30355       54.86044
C         49.93755       37.42410       55.55778
O         50.55784       36.60425       54.89568
C         49.19014       39.83614       55.02685
C         48.09391       40.75215       54.40463
C         50.58139       40.21706       54.49211
C         47.91959       40.63440       52.88957
H         47.14204       38.64446       56.05228
H         48.91768       38.08534       53.76927
H         49.18489       40.07773       56.11115
H         48.33414       41.81134       54.64393
H         47.11199       40.54251       54.87683
H         50.76694       41.30060       54.65870
H         51.37535       39.65666       55.02723
H         50.67051       39.99988       53.40825
H         48.84693       40.92827       52.35804
H         47.63015       39.60450       52.59912
H         47.10974       41.32235       52.56514
N         50.22275       37.58890       56.88496
C         51.27622       36.85405       57.60962
C         50.93146       35.38429       57.91864
O         51.77691       34.70274       58.48201
C         51.68293       37.60691       58.91546
C         50.55004       37.78415       59.88781
O         50.71254       38.34646       60.95852
O         49.33468       37.39386       59.49275
H         49.72645       38.34722       57.37017
H         52.19146       36.85688       56.97787
H         52.06183       38.61611       58.64146
H         52.50919       37.05588       59.41284
N         49.74870       34.81308       57.55438
C         49.45206       33.39271       57.71466
C         49.18962       32.92103       59.13608
O         49.82105       31.95998       59.55241
H         49.05786       35.37863       57.04548
H         50.26108       32.78977       57.24511
H         48.52845       33.16123       57.14593
N         48.20242       33.48041       59.89922
C         47.72219       32.91100       61.16028
C         46.22311       32.56720       61.09001
O         45.66742       32.17133       62.10511
C         48.07496       33.83468       62.34914
C         47.36902       35.15782       62.41078
O         47.67471       36.02299       63.39524
O         46.50240       35.44936       61.61022
H         47.73421       34.32636       59.55595
H         48.25277       31.95757       61.37700
H         49.17041       34.01842       62.32071
H         47.84506       33.30216       63.29763
N         45.52198       32.62578       59.91424
C         44.13498       32.19813       59.77752
C         43.09313       33.19149       60.25539
O         41.92029       32.85212       60.16140
H         46.01157       32.86066       59.04224
H         44.00102       31.21576       60.27946
H         43.92195       32.04361       58.69654
N         43.40508       34.43311       60.72701
C         42.39501       35.41883       61.12057
C         42.50832       36.65532       60.24988
O         43.45618       36.74251       59.48545
C         42.58052       35.80929       62.59944
C         42.57014       34.58494       63.52465
C         42.70003       34.99274       64.96888
N         41.74715       34.65406       65.86825
O         43.67998       35.62563       65.33435
H         44.39209       34.70926       60.78480
H         41.37352       35.00086       60.98488
H         41.76676       36.50707       62.89652
H         43.55377       36.33287       62.72171
H         43.42567       33.92086       63.27424
H         41.62851       34.01629       63.37008
H         40.91922       34.11118       65.58255
H         41.83988       34.92850       66.85727
N         41.57905       37.65260       60.28503
C         41.71525       38.87133       59.49058
C         41.64282       40.07457       60.41153
O         40.58428       40.35444       60.96021
C         40.65085       38.92872       58.35682
C         40.77687       40.21435       57.51848
C         40.79654       37.71983       57.41725
H         40.74516       37.54258       60.88442
H         42.70647       38.88830       58.98369
H         39.63326       38.90363       58.80541
H         40.59759       41.10876       58.14308
H         41.78476       40.29044       57.05574
H         40.01480       40.22693       56.71018
H         40.02746       37.76010       56.61629
H         41.80187       37.71236       56.94081
H         40.65685       36.76911       57.97155
N         42.75011       40.83928       60.61901
C         42.74808       42.08199       61.39201
C         41.92594       43.11612       60.62503
O         41.68935       42.89970       59.45102
C         44.22756       42.54610       61.52493
C         44.55262       43.74627       62.37893
N         45.82101       44.21677       62.39705
O         43.70536       44.28977       63.06538
H         43.63071       40.52729       60.18581
H         42.31640       41.87256       62.39505
H         44.60277       42.74789       60.50345
H         44.82697       41.70622       61.93926
H         46.55546       43.77294       61.82514
H         46.06844       45.03303       62.97460
N         41.46360       44.26605       61.18598
C         40.81844       45.30888       60.38887
C         41.79977       45.86426       59.36724
O         41.43624       46.02082       58.21030
C         40.30791       46.45206       61.29056
C         39.62654       47.53735       60.48073
C         38.49523       47.24473       59.69608
C         40.12518       48.85112       60.49396
C         37.88338       48.24401       58.93399
C         39.50792       49.85018       59.73419
C         38.38568       49.54844       58.94924
O         37.78375       50.50029       58.20774
H         41.57770       44.41634       62.19538
H         39.93691       44.87747       59.86574
H         41.16351       46.87490       61.86255
H         39.57809       46.04300       62.02201
H         38.08709       46.24287       59.66617
H         40.99408       49.10358       61.08858
H         37.01799       48.00275       58.32916
H         39.90463       50.85732       59.75402
H         38.09914       51.41509       58.18929
N         43.07722       46.15630       59.74020
C         44.09497       46.69348       58.83917
C         44.23804       45.80988       57.60674
O         44.16417       46.31682       56.49641
C         45.45495       46.84750       59.56812
C         45.36513       47.79214       60.78606
C         46.71473       48.04839       61.39254
O         47.44839       47.02985       61.87924
O         47.14497       49.18843       61.46596
H         43.33827       45.94803       60.71329
H         43.78627       47.70900       58.50453
H         46.18263       47.27880       58.84519
H         45.83628       45.85451       59.89548
H         44.72156       47.35952       61.57870
H         44.92010       48.75987       60.46796
N         44.36420       44.46192       57.74126
C         44.40647       43.51964       56.62180
C         43.18090       43.67027       55.72980
O         43.34168       43.85325       54.53106
C         44.49121       42.07182       57.15633
C         45.83831       41.80079       57.84930
C         45.86490       40.43654       58.46896
O         45.65725       39.44702       57.79158
O         46.11655       40.29786       59.78290
H         44.37643       44.08930       58.69998
H         45.30939       43.70814       55.99854
H         44.39532       41.35400       56.31045
H         43.64942       41.88898       57.85996
H         46.03504       42.54509       58.64682
H         46.65409       41.88032       57.09936
N         41.92508       43.62293       56.24687
C         40.73400       43.75865       55.43859
H         39.83363       43.73970       56.09089
H         40.75030       44.72412       54.89008
H         40.66788       42.91623       54.71903
H         41.80585       43.50901       57.25403
Ca        47.15659       37.16543       59.69889
O         47.82525       39.96607       62.10167
H         48.22095       39.44747       61.35704
H         48.22737       39.57572       62.91727
O         45.11318       38.51878       62.32110
H         45.58979       37.82125       62.83703
H         44.95705       39.24417       62.97635

Ca 1.0



