%chk=holoCaM.loop4.water3.frame123.chk
%nprocshared=20
%mem=10GB
%nosave
#b3lyp/svp scf=(tight,noincore,xqc) Test 
#IOP(5/87=12) Density=Current Pop=(MK,readradii) iop(6/33=2) iop(6/42=6)

holoCaM.loop4.water3.frame123 

   -3  1 
C         84.54709       91.99409       17.39156
C         84.63609       90.67899       18.10888
O         85.51183       89.89838       17.76928
H         83.74455       92.63466       17.81143
H         85.51434       92.53214       17.50620
H         84.35734       91.82808       16.31148
N         83.79250       90.38324       19.14321
C         83.94128       89.19820       19.98113
C         82.65827       88.36421       20.04968
O         81.61129       88.90187       20.38090
C         84.32554       89.66542       21.39994
C         84.78010       88.54106       22.28523
O         84.96075       87.42548       21.82924
O         85.05677       88.78045       23.58017
H         83.07170       91.07206       19.40719
H         84.77454       88.57015       19.59847
H         83.45767       90.18343       21.86119
H         85.16940       90.38624       21.34828
N         82.69987       87.01917       19.81396
C         81.55801       86.10137       19.91481
C         81.75635       85.02792       21.00589
O         80.78788       84.35163       21.32405
C         81.36998       85.41737       18.51217
C         81.00887       86.43633       17.40075
C         80.38417       84.23011       18.48846
C         79.62984       87.08463       17.55581
H         83.60516       86.62162       19.54888
H         80.64510       86.66057       20.20620
H         82.35424       84.97821       18.23122
H         81.02977       85.91141       16.41992
H         81.77744       87.23675       17.35953
H         80.75214       83.39632       19.12130
H         79.37449       84.52689       18.83547
H         80.31474       83.81251       17.46133
H         79.56288       87.66925       18.49432
H         79.45314       87.77484       16.70520
H         78.82537       86.32076       17.53969
N         82.97575       84.74708       21.54997
C         83.24385       83.53838       22.34616
C         84.12489       83.75648       23.58678
O         84.35191       82.78854       24.30041
C         83.87655       82.45100       21.43566
C         85.17011       82.86555       20.78261
O         85.59733       84.13526       20.89304
O         85.81421       82.05681       20.13643
H         83.76146       85.31569       21.24216
H         82.28645       83.10973       22.71572
H         83.16048       82.17223       20.63237
H         84.05989       81.54145       22.04912
N         84.63587       84.97080       23.93238
C         85.39772       85.20748       25.15334
C         86.79291       84.59220       25.23744
O         87.38976       84.74449       26.29431
H         84.39584       85.78760       23.36872
H         84.79198       84.84473       26.01260
H         85.52922       86.30385       25.28213
N         87.39852       83.90560       24.22032
C         88.73298       83.30150       24.37595
C         89.83716       84.31275       24.69556
O         90.76395       83.94303       25.40241
C         89.12416       82.39553       23.17989
C         89.19721       83.08503       21.84923
O         89.00812       84.40533       21.76067
O         89.33269       82.42768       20.83037
H         86.89122       83.77703       23.33342
H         88.67229       82.60752       25.24515
H         88.34283       81.60930       23.09497
H         90.09690       81.89618       23.37697
N         89.80115       85.59689       24.23258
C         90.80107       86.60925       24.55994
C         91.49210       87.22026       23.34764
O         92.22490       88.18059       23.54073
H         89.00452       85.89229       23.65590
H         91.58368       86.21610       25.24340
H         90.27134       87.42575       25.09486
N         91.33288       86.73108       22.08379
C         91.94681       87.31071       20.88811
C         90.87407       87.66935       19.86855
O         89.70504       87.41149       20.12553
C         92.92214       86.28884       20.26481
C         94.05468       85.90796       21.22807
C         95.03960       84.97548       20.57040
N         94.65802       83.75098       20.13690
O         96.20093       85.32961       20.43230
H         90.76533       85.89103       21.94844
H         92.50939       88.23686       21.13802
H         93.38316       86.72570       19.35329
H         92.35815       85.37759       19.96544
H         93.64314       85.41621       22.13537
H         94.58286       86.83597       21.53983
H         93.68689       83.42684       20.25057
H         95.33961       83.12076       19.68849
N         91.20208       88.22840       18.66373
C         90.21886       88.47479       17.61349
C         90.52724       87.54453       16.45773
O         91.54934       87.71169       15.80426
C         90.21542       89.96200       17.15384
C         89.14539       90.20744       16.07232
C         89.97136       90.92220       18.32586
H         92.19137       88.43579       18.45680
H         89.20175       88.23495       17.98606
H         91.21209       90.20783       16.72408
H         89.32942       89.57668       15.17975
H         88.13033       89.97898       16.46360
H         89.16722       91.26663       15.73812
H         88.97861       90.74527       18.78373
H         90.75580       90.80242       19.10155
H         90.00729       91.97397       17.96766
N         89.68903       86.51031       16.17192
C         89.91132       85.58787       15.06299
C         89.73636       86.31092       13.73588
O         89.20044       87.40808       13.70318
C         88.92226       84.40792       15.20199
C         88.94611       83.34347       14.14005
N         90.03224       82.56130       13.96311
O         87.94668       83.14938       13.46421
H         88.87754       86.35887       16.78934
H         90.95006       85.19632       15.13906
H         87.90127       84.82265       15.24903
H         89.13635       83.90421       16.15993
H         90.87562       82.68989       14.53880
H         90.01637       81.80851       13.26026
N         90.21863       85.75379       12.59491
C         90.09482       86.37221       11.28078
C         88.63050       86.49120       10.87415
O         88.16286       87.59230       10.62045
C         90.93348       85.63430       10.19048
C         90.52245       84.21409        9.82209
C         89.91206       83.97223        8.57681
C         90.75132       83.11690       10.67726
C         89.51585       82.68072        8.21364
C         90.34993       81.82959       10.31397
C         89.72815       81.60587        9.08632
O         89.34905       80.35547        8.75451
H         90.73724       84.88231       12.69840
H         90.53143       87.39541       11.34313
H         92.00840       85.63343       10.47258
H         90.85090       86.26973        9.28111
H         89.73255       84.78576        7.88583
H         91.25366       83.22337       11.62010
H         89.04320       82.51727        7.25406
H         90.52915       81.00113       10.98823
H         88.91893       80.15391        7.91175
N         87.85076       85.37900       10.80557
C         86.44288       85.36415       10.41682
C         85.60390       86.19127       11.37474
O         84.79073       86.98975       10.93183
C         85.96053       83.89623       10.40023
C         84.51822       83.73219        9.90838
C         84.16304       82.27454        9.83010
O         84.19387       81.50898       10.93812
O         83.85165       81.77492        8.76077
H         88.28619       84.48049       11.05755
H         86.33635       85.76064        9.38217
H         86.05976       83.45416       11.41660
H         86.62447       83.33030        9.70820
H         84.41971       84.19242        8.90067
H         83.81277       84.23801       10.60133
N         85.78420       86.05166       12.71459
C         85.01832       86.74467       13.74742
C         84.98306       88.24482       13.51175
O         83.89968       88.81275       13.48274
C         85.64842       86.40232       15.10891
C         84.82673       86.80265       16.32932
C         85.56172       86.34389       17.55605
O         86.62473       86.85645       17.86431
O         85.08962       85.31173       18.27738
H         86.53156       85.40814       13.01663
H         83.97603       86.35375       13.73532
H         86.66704       86.84866       15.16310
H         85.73165       85.29411       15.16341
H         83.84724       86.28203       16.27221
H         84.64557       87.89589       16.37501
N         86.12706       88.94466       13.28603
C         86.12254       90.36499       13.01143
H         87.15626       90.71235       12.79940
H         85.49199       90.57835       12.12093
H         85.72860       90.92062       13.88792
H         87.02688       88.44923       13.27142
Ca        87.51575       85.07320       20.30559
O         87.73954       83.49463       18.07131
H         88.65274       83.70880       18.39205
H         87.57985       82.57428       18.39112
O         87.28500       88.94550       20.17890
H         87.54011       89.82730       20.54823
H         87.39891       89.04107       19.20305
O         88.27441       88.01533       22.56333
H         88.78868       88.46496       23.27796
H         87.42233       87.75873       22.99352

Ca 1.0



