%chk=holoCaM-CaMKII.loop2.water1.frame215.chk
%nprocshared=20
%mem=10GB
%nosave
#b3lyp/svp scf=(tight,noincore,xqc) Test 
#IOP(5/87=12) Density=Current Pop=(MK,readradii) iop(6/33=2) iop(6/42=6)

holoCaM-CaMKII.loop2.water1.frame215 

   -2  1 
C         24.34027       45.12568       41.80923
C         24.21653       44.94695       43.29688
O         25.17089       45.19650       44.01844
H         25.34953       45.49612       41.53104
H         24.15903       44.15715       41.29702
H         23.58493       45.86183       41.45856
N         23.03386       44.53254       43.82461
C         22.79136       44.37257       45.25589
C         23.62663       43.24631       45.84473
O         23.53874       42.12239       45.36977
C         21.29706       44.10756       45.49027
C         20.92852       43.96157       46.94276
O         20.40477       42.91442       47.28471
O         21.13063       44.92140       47.88703
H         22.25503       44.36230       43.16771
H         23.02062       45.32535       45.76517
H         21.01152       43.17798       44.94509
H         20.70102       44.92621       45.05898
N         24.42477       43.48501       46.92455
C         25.21894       42.46876       47.60229
C         24.79693       42.27518       49.06053
O         25.39189       41.42922       49.71410
C         26.69226       42.89301       47.55083
H         24.46575       44.43985       47.29839
H         25.11666       41.48782       47.08985
H         27.02004       43.01456       46.49681
H         26.83214       43.86337       48.07764
H         27.34124       42.13219       48.03437
N         23.82149       43.03074       49.65419
C         23.48520       42.94360       51.07710
C         22.00100       42.65684       51.34373
O         21.62904       42.58345       52.50697
C         23.99140       44.22110       51.78246
C         23.49904       45.49906       51.16618
O         22.19015       45.77602       51.13438
O         24.29199       46.29816       50.69469
H         23.33790       43.75557       49.10707
H         24.03333       42.10548       51.56056
H         25.10231       44.22046       51.71786
H         23.71995       44.19617       52.85933
N         21.11209       42.41024       50.33807
C         19.72939       41.98894       50.55435
C         18.78096       43.02553       51.14106
O         17.62521       42.67528       51.33687
H         21.45249       42.41086       49.37146
H         19.73148       41.09013       51.20998
H         19.29704       41.68301       49.57720
N         19.16175       44.29561       51.46119
C         18.25581       45.25519       52.09856
C         17.16172       45.81655       51.17648
O         16.36812       46.61489       51.65659
C         19.04849       46.39221       52.78720
C         19.79755       47.33488       51.88350
N         20.46219       48.37976       52.42466
O         19.81269       47.17090       50.67453
H         20.14200       44.55892       51.32884
H         17.75248       44.72982       52.94147
H         19.77545       45.93957       53.49740
H         18.33366       47.00051       53.38250
H         20.46603       48.53069       53.44388
H         20.96428       49.04645       51.82595
N         17.02261       45.43822       49.87022
C         15.93401       45.90806       49.01736
C         16.10738       47.31374       48.46171
O         15.23653       47.73928       47.71621
H         17.64978       44.72505       49.47556
H         14.96782       45.81537       49.56139
H         15.87597       45.24109       48.13080
N         17.20104       48.07816       48.73592
C         17.45242       49.39873       48.15658
C         18.76945       49.38713       47.38738
O         19.43614       48.36329       47.36036
C         17.48754       50.46260       49.28626
C         16.12224       50.60127       49.96126
O         18.44579       50.12941       50.25891
H         17.91042       47.70871       49.37467
H         16.65455       49.68193       47.43518
H         17.71301       51.46974       48.86813
H         19.33195       50.39473       49.89882
H         16.16950       51.38720       50.74503
H         15.35689       50.90149       49.21323
H         15.81207       49.64635       50.43449
N         19.22823       50.52019       46.77881
C         20.54040       50.62899       46.14839
C         21.42825       51.40880       47.09053
O         21.07788       52.51592       47.47788
C         20.45952       51.29969       44.73963
C         19.66724       50.39543       43.76273
C         21.87797       51.58199       44.19094
C         19.50833       50.97665       42.35468
H         18.66629       51.38167       46.84894
H         21.00301       49.62802       46.01283
H         19.93806       52.27799       44.83624
H         18.65065       50.22296       44.17537
H         20.17895       49.41730       43.66399
H         22.42632       52.26848       44.86380
H         22.45833       50.64098       44.08175
H         21.84506       52.10799       43.21752
H         18.89639       50.28464       41.73910
H         19.00562       51.96486       42.39527
H         20.48720       51.07842       41.84253
N         22.62712       50.88443       47.46947
C         23.56479       51.57625       48.33407
C         24.55378       52.36813       47.48970
O         24.49813       52.26295       46.27678
C         24.24765       50.56016       49.26931
C         23.25222       49.85525       50.16527
O         22.46325       48.81328       49.77758
O         23.18524       50.21646       51.32945
H         22.93394       49.99745       47.05021
H         23.01908       52.32482       48.95231
H         24.93949       51.14449       49.91563
H         24.85836       49.81380       48.71887
N         25.43223       53.25491       48.04400
C         26.27117       54.12126       47.21522
C         27.28260       53.35722       46.36300
O         27.27243       53.58074       45.16043
C         26.99769       55.21781       48.02695
C         27.72128       56.16126       47.07958
C         29.12423       56.25297       47.08824
C         26.99426       56.93133       46.14914
C         29.78328       57.08675       46.17644
C         27.65709       57.76163       45.24156
C         29.05070       57.83732       45.25267
H         25.44212       53.37581       49.06857
H         25.58154       54.66511       46.53191
H         27.70836       54.75112       48.73742
H         26.26573       55.80386       48.62340
H         29.70933       55.66832       47.78638
H         25.91337       56.88480       46.11669
H         30.86384       57.14606       46.17947
H         27.08904       58.34160       44.52490
H         29.56183       58.47628       44.54365
N         28.20388       52.47410       46.86841
C         29.20999       51.81720       46.04042
C         28.57181       50.93818       44.98285
O         29.14361       50.79403       43.91113
C         30.05817       51.03749       47.05351
C         29.06232       50.71920       48.14703
C         28.28223       52.02820       48.24706
H         29.86977       52.55269       45.52796
H         30.62644       50.17645       46.64029
H         30.78705       51.74722       47.50717
H         28.38426       49.92477       47.76405
H         29.49680       50.36875       49.10723
H         27.30303       51.79200       48.70619
H         28.83766       52.78458       48.84086
N         27.35486       50.37320       45.19167
C         26.64972       49.58954       44.18828
C         26.31073       50.47147       43.00018
O         26.68545       50.14070       41.88470
C         25.37003       48.98929       44.79586
C         25.70150       48.06155       45.98237
C         24.48023       47.50923       46.63220
O         24.61357       46.77677       47.75138
O         23.36971       47.73764       46.18185
H         26.89726       50.53393       46.09900
H         27.28680       48.73793       43.85838
H         24.82868       48.40653       44.01784
H         24.70446       49.80726       45.14893
H         26.24129       48.61456       46.77504
H         26.34498       47.22053       45.64731
N         25.62650       51.63500       43.18622
C         25.28287       52.56124       42.12951
H         24.18312       52.71177       42.11928
H         25.77105       53.53880       42.33148
H         25.60504       52.20231       41.13124
H         25.35182       51.90071       44.13584
Ca        21.85783       47.07777       48.35202
O         20.31166       47.29579       45.02228
H         21.23382       47.39271       44.67655
H         19.78279       46.98637       44.24522

Ca 1.0



