%chk=holoCaM.loop1.water2.frame426.chk
%nprocshared=20
%mem=10GB
%nosave
#b3lyp/svp scf=(tight,noincore,xqc) Test 
#IOP(5/87=12) Density=Current Pop=(MK,readradii) iop(6/33=2) iop(6/42=6)

holoCaM.loop1.water2.frame426 

   0  1 
C          9.75221       97.77093       34.09934
C          9.98938       98.62253       32.88580
O          9.04011       98.90579       32.17225
H          9.02911       98.27133       34.77603
H          9.33650       96.79001       33.78380
H         10.69422       97.58670       34.65770
N         11.24061       99.06635       32.58206
C         11.54038       99.84851       31.38757
C         11.22040       99.04220       30.13569
O         11.67706       97.91242       30.02781
C         13.02104      100.29599       31.39841
C         13.30949      101.12155       30.18103
O         13.34149      100.59474       29.08045
O         13.18427      102.45291       30.25891
H         12.01307       98.82943       33.22403
H         10.92806      100.78016       31.40078
H         13.72467       99.43850       31.44898
H         13.17342      100.92754       32.30264
N         10.46975       99.59069       29.13157
C         10.07121       98.86096       27.93148
C         10.71687       99.36266       26.64647
O         10.67004       98.60387       25.68696
C          8.53410       98.92021       27.76187
C          7.73915       98.40066       28.96893
C          7.99173       96.91176       29.23145
C          7.19229       96.40877       30.43656
N          7.46759       94.99308       30.67711
H         10.15463      100.55968       29.23785
H         10.40019       97.80486       28.02120
H          8.22969       98.34696       26.85859
H          8.24257       99.98304       27.60096
H          6.65648       98.55095       28.76251
H          7.99549       99.00240       29.86457
H          9.06652       96.74310       29.44333
H          7.70433       96.32949       28.32839
H          6.10388       96.55105       30.25542
H          7.47584       96.99172       31.33922
H          8.48932       94.85145       30.85333
H          6.93347       94.67663       31.51773
H          7.17211       94.42529       29.84987
N         11.27996      100.60340       26.50161
C         11.87059      101.03763       25.23302
C         13.31338      101.50627       25.38686
O         13.66732      102.57165       24.89998
C         10.94008      102.01934       24.47571
C         10.67862      103.34849       25.12453
O         11.25298      103.68379       26.28902
O          9.93875      104.14697       24.57241
H         11.24867      101.26498       27.28224
H         11.94445      100.16691       24.54674
H          9.96060      101.51430       24.32646
H         11.37484      102.21432       23.47056
N         14.23023      100.67620       25.95974
C         15.67060      100.86469       25.84712
C         16.29693      102.08100       26.50094
O         17.49162      102.24622       26.29800
H         13.90184       99.78700       26.36678
H         15.91232      100.90563       24.76325
H         16.18005       99.96988       26.26664
N         15.61978      102.95658       27.29693
C         16.26681      104.12753       27.90101
C         16.40569      104.00709       29.41810
O         16.92536      104.93126       30.02916
C         15.56268      105.42152       27.44246
C         14.09142      105.44550       27.72856
O         13.64356      105.33985       28.98686
O         13.29285      105.57050       26.81488
H         14.62425      102.78553       27.50220
H         17.31617      104.22846       27.54705
H         15.70651      105.52419       26.34396
H         16.04485      106.29955       27.92487
N         16.06060      102.86780       30.08440
C         16.32471      102.64081       31.49849
C         15.54400      103.49913       32.47964
O         15.75129      103.30425       33.66720
H         15.68546      102.07163       29.55376
H         17.41229      102.77465       31.68440
H         16.07310      101.58260       31.73311
N         14.63384      104.44085       32.09082
C         13.85616      105.24446       33.03847
C         12.36863      104.94765       32.87603
O         12.00592      104.21635       31.96940
C         14.18492      106.74805       32.87110
C         15.67583      107.03826       33.12233
O         13.79157      107.22412       31.60761
H         14.46641      104.58956       31.09391
H         14.11735      104.95920       34.08018
H         13.61610      107.32055       33.63469
H         14.46223      106.92956       30.93827
H         16.31495      106.50906       32.38287
H         15.86956      108.12790       33.03190
H         15.96818      106.70820       34.14134
N         11.45372      105.42016       33.77987
C         10.04495      105.02019       33.75287
C          9.12761      106.24132       33.65270
O          9.06406      107.04245       34.57242
C          9.74193      104.11693       34.99109
C         10.58249      102.80860       34.88035
C          8.24295      103.78925       35.09740
C         10.40086      101.82529       36.03749
H         11.77900      106.00876       34.55997
H          9.84379      104.39004       32.86086
H         10.02701      104.66646       35.91537
H         11.66153      103.06837       34.84366
H         10.32554      102.27686       33.93628
H          7.91942      103.21159       34.21605
H          8.02262      103.20344       36.01166
H          7.63610      104.71295       35.17702
H         10.66211      102.30885       37.00126
H          9.36348      101.43585       36.08021
H         11.06944      100.95166       35.88076
N          8.36966      106.40857       32.52830
C          7.38148      107.46283       32.30355
C          6.04676      107.08791       32.94515
O          5.94614      106.05082       33.58442
C          7.13608      107.65371       30.76613
C          8.39524      108.03825       29.98603
O          6.51347      106.52549       30.19855
H          8.50309      105.73313       31.77690
H          7.76144      108.43051       32.69778
H          6.45019      108.50830       30.60529
H          7.20642      105.85556       29.97961
H          8.84096      108.96619       30.40060
H          9.13111      107.21875       30.03088
H          8.13391      108.21146       28.91962
N          4.94578      107.85987       32.71557
C          3.57984      107.45824       33.04461
C          3.22253      106.15963       32.32156
O          2.69609      105.25402       32.95023
C          2.56325      108.56109       32.63557
C          2.78085      109.87053       33.39852
O          2.63661      108.82934       31.25591
H          5.07375      108.74417       32.20724
H          3.48043      107.30745       34.14339
H          1.53974      108.20639       32.91038
H          1.83928      108.42134       30.82699
H          2.00596      110.60687       33.09658
H          2.70014      109.69861       34.49195
H          3.77415      110.31216       33.17613
N          3.48566      106.01132       30.98895
C          3.14955      104.81835       30.20485
C          3.86681      103.55041       30.65344
O          3.51744      102.49124       30.14937
C          3.51631      105.04956       28.71606
C          2.69541      106.15588       28.02499
C          1.19969      105.82799       27.86101
C          0.96013      104.59035       26.97635
N         -0.46710      104.35795       26.77032
H          3.93719      106.80132       30.50719
H          2.06186      104.62570       30.31037
H          3.41414      104.11409       28.13079
H          4.59397      105.32160       28.66584
H          3.12330      106.32562       27.01317
H          2.79619      107.10877       28.58496
H          0.71748      106.70402       27.37612
H          0.71905      105.68813       28.85137
H          1.39484      103.68384       27.44709
H          1.45061      104.74502       25.98925
H         -0.90273      105.18513       26.30219
H         -0.58836      103.51894       26.15777
H         -0.93580      104.17839       27.68778
N          4.89716      103.56919       31.54093
C          5.64760      102.38052       31.93110
C          5.55850      102.13960       33.43819
O          6.13103      101.16244       33.90074
C          7.11285      102.57227       31.48371
C          7.23527      102.83245       29.96337
C          8.62889      103.26247       29.60590
O          9.15736      104.17744       30.20813
O          9.32658      102.67333       28.62999
H          5.21631      104.46853       31.91506
H          5.24726      101.47088       31.43252
H          7.73473      101.69369       31.76694
H          7.50121      103.46362       32.01966
H          6.56713      103.66579       29.67640
H          6.93439      101.93228       29.38392
N          4.85910      102.97491       34.26584
C          4.74187      102.79447       35.69798
H          3.66821      102.69676       35.96628
H          5.28282      101.89753       36.06127
H          5.15168      103.68973       36.21266
H          4.37489      103.79371       33.88757
Ca        11.51823      103.09267       28.93322
O         10.08337      106.41436       27.08021
H          9.35083      105.84681       26.73237
H          9.80490      107.33968       26.86524
O         11.50991      106.80450       29.67531
H         11.39680      106.93931       30.64927
H         11.60789      107.71653       29.30303

Ca 1.0



