%chk=holoCaM-CaMKII.loop1.water2.frame327.chk
%nprocshared=20
%mem=10GB
%nosave
#b3lyp/svp scf=(tight,noincore,xqc) Test 
#IOP(5/87=12) Density=Current Pop=(MK,readradii) iop(6/33=2) iop(6/42=6)

holoCaM-CaMKII.loop1.water2.frame327 

   0  1 
C         33.13556       40.36281       62.52598
C         32.05049       39.58080       61.85771
O         30.93224       40.05313       61.80930
H         33.95250       40.55720       61.79928
H         32.74476       41.33423       62.89658
H         33.53140       39.77953       63.38250
N         32.33335       38.37423       61.30133
C         31.38038       37.51919       60.59383
C         30.30146       36.96147       61.54130
O         30.41989       35.83365       62.00186
C         32.18998       36.37956       59.94241
C         31.37024       35.44606       59.12564
O         30.08427       35.71409       58.83256
O         31.88577       34.41702       58.73428
H         33.31710       38.06392       61.35751
H         30.90298       38.08714       59.76314
H         32.68908       35.79506       60.74420
H         32.97633       36.79707       59.27348
N         29.21510       37.71359       61.87240
C         28.18785       37.30355       62.82579
C         27.32307       36.12201       62.38922
O         26.65618       35.57702       63.25854
C         27.22915       38.47860       63.14012
C         27.89760       39.77455       63.63572
C         28.79248       39.56554       64.86141
C         29.31762       40.91124       65.37346
N         30.23767       40.72306       66.49311
H         29.15205       38.65174       61.47610
H         28.71193       37.00527       63.75998
H         26.50421       38.14815       63.91532
H         26.65399       38.73135       62.22030
H         27.08401       40.49060       63.88159
H         28.50372       40.24002       62.83249
H         29.65772       38.92741       64.57871
H         28.21814       39.06212       65.66910
H         28.45699       41.53664       65.70088
H         29.84901       41.44432       64.55349
H         29.76029       40.21778       67.27439
H         31.07407       40.17941       66.17786
H         30.55316       41.65950       66.83436
N         27.22637       35.69337       61.09454
C         26.38358       34.55644       60.70006
C         27.21492       33.38051       60.18820
O         26.64219       32.35963       59.83463
C         25.26270       34.99606       59.72786
C         25.69344       35.46704       58.37054
O         26.99043       35.51497       58.02013
O         24.83901       35.79007       57.56099
H         27.76351       36.18130       60.36551
H         25.84224       34.15900       61.58455
H         24.67550       35.80960       60.20954
H         24.57684       34.13534       59.57003
N         28.57651       33.42979       60.19320
C         29.45463       32.32329       59.85987
C         29.32216       31.84091       58.43311
O         29.29041       30.63602       58.23117
H         29.04659       34.28169       60.51546
H         29.29106       31.48344       60.56924
H         30.50001       32.66738       60.01016
N         29.31348       32.71979       57.39035
C         29.26938       32.31177       55.98038
C         30.62017       32.44797       55.28903
O         30.80769       31.82402       54.25399
C         28.14025       33.03467       55.20133
C         28.17052       34.55435       55.23837
O         27.26662       35.18006       54.70448
O         29.11798       35.22457       55.91318
H         29.36272       33.71376       57.62788
H         29.05588       31.22115       55.93800
H         27.17213       32.72100       55.64699
H         28.15401       32.69245       54.14289
N         31.61637       33.20796       55.81253
C         32.97067       33.27609       55.29316
C         33.34369       34.66459       54.82173
O         34.51574       34.88349       54.55659
H         31.41314       33.77365       56.63402
H         33.14569       32.55478       54.46742
H         33.65008       32.99956       56.12984
N         32.40676       35.64278       54.65610
C         32.72356       37.01028       54.24962
C         32.11969       37.99962       55.24097
O         31.50092       37.57974       56.20378
C         32.26193       37.26010       52.78835
C         33.11744       36.47461       51.78374
O         30.89864       36.97822       52.60196
H         31.41427       35.41568       54.80264
H         33.82067       37.18514       54.27532
H         32.42385       38.32878       52.53846
H         30.78187       35.99165       52.59271
H         32.80953       36.73250       50.74847
H         34.18818       36.74592       51.90603
H         33.00664       35.37976       51.92979
N         32.32401       39.34199       55.09235
C         31.83014       40.35451       56.02713
C         30.99550       41.38300       55.25089
O         31.43275       41.83484       54.20304
C         33.03293       41.01894       56.76211
C         33.93495       39.94026       57.43192
C         32.51508       42.00900       57.82760
C         35.22731       40.50434       58.02746
H         32.90425       39.66575       54.30576
H         31.20397       39.88984       56.82008
H         33.64151       41.56577       56.00923
H         34.25557       39.19776       56.67154
H         33.36792       39.39756       58.22137
H         31.93042       41.46495       58.60150
H         33.34422       42.54458       58.32849
H         31.86688       42.78345       57.37358
H         35.02899       41.20915       58.85837
H         35.84038       39.67204       58.43386
H         35.81522       41.01873       57.23737
N         29.80232       41.83104       55.74163
C         28.91906       42.78095       55.05807
C         29.07364       44.18475       55.61662
O         29.87624       44.41163       56.50251
C         27.42630       42.35679       55.23749
C         27.12747       40.97928       54.70336
O         27.08806       42.37762       56.59434
H         29.52141       41.51179       56.66929
H         29.16487       42.82758       53.97572
H         26.76747       43.06034       54.68445
H         26.10522       42.50025       56.66039
H         27.35916       40.91570       53.62314
H         27.72614       40.25709       55.28111
H         26.04776       40.76255       54.86123
N         28.27967       45.17808       55.13305
C         28.17965       46.52112       55.69191
C         27.67339       46.45259       57.13598
O         28.25159       47.07981       58.01173
C         27.21193       47.38137       54.82095
C         27.71502       47.53081       53.37656
O         25.92379       46.81762       54.77757
H         27.66488       44.94575       54.34379
H         29.17214       47.02510       55.66937
H         27.16469       48.41216       55.24497
H         25.40477       47.20364       55.53030
H         28.73287       47.97177       53.36020
H         27.74533       46.55619       52.84527
H         27.02950       48.19240       52.80604
N         26.57439       45.70263       57.43409
C         25.94471       45.59775       58.75120
C         26.88240       44.96832       59.78597
O         27.02514       45.50933       60.87303
C         24.60819       44.82834       58.58345
C         23.80814       44.72560       59.88550
C         22.37761       44.18012       59.71577
C         22.30604       42.82626       58.99088
N         21.02631       42.16387       59.24986
H         26.14395       45.17548       56.65894
H         25.66382       46.61516       59.10130
H         24.79112       43.80993       58.17896
H         23.99684       45.39275       57.84373
H         23.71952       45.73198       60.34911
H         24.36368       44.06405       60.58349
H         21.73443       44.90733       59.16827
H         21.96813       44.07516       60.74272
H         23.11950       42.15578       59.34028
H         22.43636       42.99574       57.89682
H         21.00299       41.85215       60.24922
H         20.22112       42.80547       59.06772
H         20.94208       41.31871       58.64040
N         27.58223       43.84292       59.48522
C         28.56757       43.19235       60.35065
C         29.67476       44.17819       60.69419
O         29.96164       44.37104       61.86743
C         29.12019       41.92141       59.64019
C         27.99705       40.85908       59.50025
C         28.33812       39.54653       58.82498
O         28.72185       39.47051       57.53755
O         28.14296       38.50626       59.41219
H         27.44693       43.46525       58.54927
H         28.09408       42.85757       61.30108
H         29.95189       41.49827       60.22723
H         29.53585       42.21739       58.66225
H         27.14354       41.28267       58.94325
H         27.64217       40.62264       60.52759
N         30.28769       44.88638       59.70899
C         31.28860       45.90933       59.92717
H         32.20713       45.65330       59.35925
H         30.90001       46.87951       59.54734
H         31.54675       46.03050       60.99892
H         29.99229       44.72568       58.74642
Ca        28.91718       37.33808       56.75593
O         26.27712       38.42056       56.02929
H         26.00205       38.14011       55.12121
H         25.85163       37.77270       56.63541
O         28.70910       38.41617       54.13486
H         28.00767       38.15895       53.48734
H         29.28208       37.61860       54.21903

Ca 1.0



