%chk=holoCaM-CaMKII.loop2.water1.frame171.chk
%nprocshared=20
%mem=10GB
%nosave
#b3lyp/svp scf=(tight,noincore,xqc) Test 
#IOP(5/87=12) Density=Current Pop=(MK,readradii) iop(6/33=2) iop(6/42=6)

holoCaM-CaMKII.loop2.water1.frame171 

   -2  1 
C        116.96111       49.29123        2.79952
C        117.72018       50.43392        2.18343
O        117.23967       51.05703        1.24893
H        115.98249       49.13621        2.30068
H        117.55970       48.35826        2.72277
H        116.78213       49.50604        3.87591
N        118.93202       50.76641        2.69541
C        119.75776       51.88100        2.23819
C        120.20223       51.72276        0.78759
O        120.82566       50.72578        0.45216
C        120.96353       51.99201        3.18979
C        121.99554       52.99076        2.78004
O        123.15259       52.62533        2.64947
O        121.70172       54.26717        2.49710
H        119.26937       50.20053        3.49145
H        119.17986       52.82431        2.33830
H        121.46935       51.00292        3.26277
H        120.58528       52.26339        4.19811
N        119.94121       52.72022       -0.11173
C        120.36108       52.71174       -1.51042
C        121.29583       53.87827       -1.86204
O        121.75254       53.91687       -2.99645
C        119.10707       52.79330       -2.39405
H        119.41382       53.53759        0.21574
H        120.89821       51.76728       -1.74224
H        118.42308       51.94668       -2.17386
H        118.55978       53.74342       -2.20044
H        119.37421       52.75732       -3.47185
N        121.57581       54.89032       -0.98346
C        122.33583       56.09490       -1.33661
C        123.42300       56.45871       -0.31016
O        124.06937       57.48228       -0.48393
C        121.31665       57.23960       -1.57508
C        120.42129       57.57491       -0.40611
O        120.75442       57.20219        0.83798
O        119.44731       58.28873       -0.57446
H        121.13257       54.87564       -0.06003
H        122.85529       55.95434       -2.31086
H        120.65548       56.89085       -2.39847
H        121.82342       58.16350       -1.93005
N        123.70195       55.65888        0.76092
C        124.73116       55.91607        1.76703
C        124.50270       57.10374        2.70282
O        125.33744       57.29425        3.57613
H        123.21622       54.76123        0.83155
H        125.71298       56.03302        1.26009
H        124.79915       55.01769        2.41983
N        123.44328       57.95607        2.59128
C        123.28001       59.15550        3.42071
C        122.88698       58.89934        4.88468
O        122.75869       59.87312        5.61492
C        122.28392       60.13843        2.75744
C        120.85415       59.67112        2.66731
N        119.92178       60.48790        2.13170
O        120.52521       58.56943        3.07418
H        122.79001       57.81293        1.81971
H        124.25311       59.69608        3.42052
H        122.64069       60.36510        1.72880
H        122.29017       61.08927        3.33269
H        120.17743       61.42118        1.77980
H        118.94039       60.19188        2.07738
N        122.69888       57.64995        5.40180
C        122.38434       57.41154        6.80970
C        120.94148       57.69445        7.22013
O        120.63098       57.46285        8.37973
H        122.86110       56.82598        4.80750
H        123.09229       57.98269        7.45063
H        122.55066       56.33391        7.02212
N        120.00079       58.15059        6.34384
C        118.58676       58.34673        6.67348
C        117.70472       57.51405        5.75880
O        118.03966       57.34455        4.59374
C        118.18299       59.83069        6.52470
C        118.87757       60.70793        7.56398
O        118.49082       60.31125        5.23999
H        120.28843       58.35919        5.38614
H        118.37067       58.04819        7.72383
H        117.08753       59.93378        6.71713
H        117.77668       59.99309        4.62834
H        118.53408       61.75838        7.45227
H        118.61683       60.36406        8.58839
H        119.97947       60.67422        7.43723
N        116.52289       57.00147        6.21229
C        115.61413       56.27077        5.33303
C        114.93421       57.28110        4.41030
O        114.22631       58.14255        4.91486
C        114.52377       55.46389        6.11867
C        115.13311       54.59270        7.25263
C        113.74204       54.57526        5.12477
C        114.08211       53.83289        8.07055
H        116.26513       57.15921        7.19693
H        116.21491       55.52216        4.76827
H        113.82014       56.18208        6.59619
H        115.66118       55.24345        7.97705
H        115.86883       53.87097        6.83841
H        113.29519       55.17962        4.31647
H        114.41782       53.82002        4.66599
H        112.90028       54.04917        5.61421
H        113.32669       54.53704        8.48155
H        113.57194       53.05947        7.46244
H        114.57582       53.31252        8.91761
N        115.09269       57.24003        3.05772
C        114.38599       58.15223        2.15296
C        113.00810       57.59469        1.84736
O        112.70039       56.51498        2.31588
C        115.17124       58.34406        0.84095
C        116.54108       58.90678        1.08106
O        116.84646       59.99271        0.61500
O        117.44830       58.20472        1.78639
H        115.68013       56.50166        2.65390
H        114.27573       59.14889        2.63564
H        114.61267       59.04621        0.18419
H        115.27331       57.37720        0.30512
N        112.10674       58.27819        1.08063
C        110.79631       57.71164        0.77341
C        110.91533       56.47117       -0.11217
O        110.34831       55.45884        0.28506
C        109.80447       58.75818        0.21615
C        108.44345       58.13289       -0.02254
C        107.87341       58.14771       -1.30698
C        107.73856       57.51223        1.02921
C        106.63088       57.54735       -1.53547
C        106.50250       56.90616        0.79320
C        105.94885       56.92305       -0.48792
H        112.34258       59.22107        0.74083
H        110.34599       57.40138        1.74097
H        110.17797       59.22024       -0.71377
H        109.69515       59.57728        0.95955
H        108.39090       58.61892       -2.13298
H        108.14330       57.48289        2.03210
H        106.19851       57.56139       -2.52711
H        105.97575       56.42054        1.60493
H        104.99130       56.45213       -0.66797
N        111.63489       56.41008       -1.28426
C        111.75639       55.20334       -2.10488
C        112.40163       54.00130       -1.41158
O        112.50226       52.95193       -2.02841
C        112.64385       55.63854       -3.27794
C        112.32310       57.11232       -3.38507
C        112.31659       57.52217       -1.91655
H        110.73300       54.94266       -2.45711
H        113.71576       55.58079       -2.97430
H        112.50861       55.04195       -4.20557
H        113.01789       57.69671       -4.02470
H        111.28803       57.21380       -3.78611
H        113.35339       57.57629       -1.51807
H        111.81568       58.49680       -1.82206
N        112.85805       54.08942       -0.13163
C        113.47678       53.01174        0.62075
C        112.47129       52.47733        1.62703
O        112.32110       51.26703        1.71930
C        114.74481       53.54525        1.31847
C        115.73460       54.14580        0.30335
C        116.96045       54.71549        0.95077
O        117.76470       55.32544        0.26551
O        117.17864       54.58281        2.27432
H        112.78428       54.97861        0.36447
H        113.77995       52.17335       -0.04554
H        115.23096       52.72048        1.88277
H        114.45893       54.33940        2.04303
H        115.23608       54.97755       -0.23736
H        116.04444       53.37704       -0.43714
N        111.68717       53.32452        2.35508
C        110.64641       52.89329        3.26293
H        109.66398       53.24607        2.87962
H        110.60740       51.79056        3.36981
H        110.81783       53.34778        4.26007
H        111.78254       54.33638        2.23257
Ca       119.92732       55.58557        2.16727
O        120.50890       55.33561        5.10446
H        121.30002       54.79593        5.35525
H        119.74288       54.71611        5.19489

Ca 1.0



