%chk=holoCaM.loop4.water3.frame121.chk
%nprocshared=20
%mem=10GB
%nosave
#b3lyp/svp scf=(tight,noincore,xqc) Test 
#IOP(5/87=12) Density=Current Pop=(MK,readradii) iop(6/33=2) iop(6/42=6)

holoCaM.loop4.water3.frame121 

   -3  1 
C         71.04422      101.95754       21.45912
C         71.65832      100.82087       22.22282
O         72.79564      100.94813       22.65124
H         70.14921      102.31860       22.01289
H         71.75608      102.80864       21.37957
H         70.74253      101.63301       20.44477
N         70.92376       99.70343       22.50081
C         71.33963       98.73348       23.50684
C         70.95874       97.28869       23.16243
O         69.82232       97.03250       22.79206
C         70.67119       99.16635       24.81707
C         71.07351       98.29647       25.95471
O         72.25289       98.18419       26.24790
O         70.13070       97.63764       26.65384
H         69.94471       99.67902       22.17607
H         72.43894       98.79125       23.67617
H         69.56587       99.15163       24.70621
H         70.98545      100.20589       25.05783
N         71.86535       96.28433       23.36925
C         71.63032       94.85159       23.15126
C         71.73221       94.03329       24.45690
O         71.43188       92.84820       24.41056
C         72.69384       94.35593       22.10538
C         72.52890       95.05310       20.72889
C         72.78541       92.82704       21.91596
C         71.24137       94.69626       19.98178
H         72.79211       96.55362       23.71481
H         70.60095       94.68477       22.77197
H         73.69207       94.65016       22.50034
H         73.38942       94.76858       20.08354
H         72.56456       96.15530       20.85574
H         71.81563       92.39064       21.60496
H         73.55984       92.58505       21.15681
H         73.12749       92.32872       22.84589
H         71.18473       93.60716       19.77984
H         70.34553       95.01328       20.55119
H         71.23183       95.22117       19.00418
N         72.16333       94.56006       25.64160
C         72.52783       93.70620       26.78715
C         72.40212       94.36647       28.17355
O         72.62076       93.67402       29.15889
C         73.98582       93.20718       26.62146
C         74.97823       94.34181       26.62568
O         74.54964       95.61089       26.48484
O         76.16874       94.11636       26.77088
H         72.43757       95.54382       25.63676
H         71.85593       92.81935       26.80649
H         74.11653       92.60663       25.69627
H         74.21512       92.54099       27.48295
N         72.06430       95.67313       28.34284
C         71.88936       96.31062       29.63754
C         73.15345       96.54503       30.45758
O         72.98802       97.00500       31.57894
H         71.84322       96.23291       27.52721
H         71.17251       95.69951       30.22925
H         71.41904       97.30601       29.48484
N         74.42620       96.26733       30.02512
C         75.57994       96.39363       30.92747
C         75.85107       97.80980       31.45111
O         76.57899       97.92269       32.42769
C         76.87250       95.72317       30.38153
C         77.66525       96.42697       29.30156
O         77.26590       97.58173       28.75342
O         78.71727       95.93669       28.92647
H         74.56241       95.86462       29.09103
H         75.30028       95.78206       31.81535
H         76.62114       94.69752       30.03452
H         77.57106       95.62682       31.23985
N         75.31394       98.92533       30.87523
C         75.46123      100.27436       31.42016
C         76.22572      101.22919       30.51674
O         76.23742      102.41491       30.81061
H         74.75109       98.82015       30.02260
H         75.96758      100.27364       32.40962
H         74.43750      100.67800       31.57547
N         76.92745      100.78502       29.43722
C         77.69260      101.63679       28.53008
C         77.24960      101.39353       27.09353
O         76.39592      100.55186       26.85750
C         79.19928      101.30899       28.66266
C         79.75657      101.67217       30.04641
C         81.24473      101.43215       30.11468
N         81.75680      100.18602       29.98364
O         81.99804      102.37742       30.29587
H         76.95354       99.78261       29.25651
H         77.53877      102.71309       28.76314
H         79.77626      101.89901       27.91952
H         79.36600      100.23013       28.44751
H         79.25359      101.08247       30.84162
H         79.55865      102.75164       30.23022
H         81.14083       99.37280       29.84205
H         82.77539      100.03283       30.03192
N         77.83261      102.08946       26.07272
C         77.54714      101.85088       24.66238
C         78.82086      101.33859       24.00844
O         79.86762      101.94702       24.17819
C         77.03608      103.13754       23.96031
C         76.61697      102.82051       22.51063
C         75.83667      103.75121       24.69977
H         78.54039      102.80347       26.29770
H         76.75186      101.08561       24.55119
H         77.84760      103.89783       23.94648
H         75.79636      102.06837       22.49771
H         76.25881      103.73766       21.99781
H         77.46907      102.41673       21.92632
H         76.11903      104.03986       25.73357
H         75.49567      104.66960       24.17522
H         74.98795      103.04017       24.74605
N         78.78801      100.22950       23.21886
C         79.96500       99.63387       22.59414
C         79.97571       99.93265       21.10556
O         78.98975      100.41644       20.56930
C         79.93830       98.11674       22.90353
C         80.95320       97.26390       22.18536
N         82.27802       97.42744       22.38802
O         80.56470       96.39414       21.41851
H         77.87465       99.80343       23.01955
H         80.89043      100.09320       23.00398
H         78.93803       97.73565       22.62246
H         80.05049       97.97009       23.99814
H         82.62733       98.14988       23.03238
H         82.95357       96.82817       21.89118
N         81.12661       99.75533       20.39461
C         81.25104      100.08720       18.98443
C         80.36600       99.18571       18.14960
O         79.51736       99.69358       17.42889
C         82.74306      100.08619       18.53353
C         83.47691       98.76112       18.57513
C         83.40147       97.87316       17.48719
C         84.27157       98.41324       19.68165
C         84.07990       96.65090       17.51910
C         84.94807       97.18867       19.71189
C         84.85072       96.30169       18.63526
O         85.50170       95.12162       18.68269
H         81.96453       99.43776       20.89617
H         80.91999      101.14249       18.84903
H         83.27991      100.80693       19.18937
H         82.83343      100.50388       17.50713
H         82.80850       98.12460       16.61646
H         84.36141       99.08352       20.52692
H         84.00155       95.97438       16.67702
H         85.54729       96.92776       20.57518
H         85.45376       94.47787       17.96117
N         80.51284       97.83058       18.19111
C         79.74956       96.93420       17.33285
C         78.30166       96.82051       17.79356
O         77.47046       96.34302       17.03470
C         80.46531       95.57013       17.26872
C         79.99621       94.66521       16.12373
C         80.85739       93.43316       15.99776
O         80.63919       92.63716       15.09948
O         81.88172       93.20442       16.84582
H         81.22892       97.43003       18.81420
H         79.78494       97.37238       16.30995
H         80.39620       95.05015       18.25030
H         81.53385       95.78273       17.06480
H         80.07675       95.23076       15.16929
H         78.94117       94.36066       16.27622
N         77.93204       97.23803       19.03959
C         76.55789       97.23996       19.52205
C         75.75563       98.23191       18.70836
O         74.74700       97.85859       18.12605
C         76.55875       97.60392       21.02000
C         75.19169       97.50570       21.69391
C         75.34333       97.74889       23.16643
O         75.68938       98.84120       23.57839
O         75.14060       96.74798       24.03961
H         78.66056       97.57328       19.68616
H         76.12988       96.21541       19.43070
H         76.98238       98.61915       21.16856
H         77.21341       96.86110       21.52561
H         74.81210       96.47848       21.54124
H         74.46548       98.22931       21.26429
N         76.18603       99.51842       18.59254
C         75.50259      100.50147       17.78513
H         74.47798      100.66953       18.17562
H         76.06171      101.46172       17.81355
H         75.45433      100.15529       16.73066
H         77.05090       99.80632       19.07049
Ca        75.60913       97.35085       27.32823
O         73.88541      100.49685       25.41671
H         74.41315      100.76326       24.62558
H         73.35805      101.30320       25.64120
O         73.38614       99.79355       28.21423
H         72.94551      100.65925       28.02977
H         72.70173       99.26548       28.69653
O         77.83829       97.35485       25.33091
H         77.81773       96.36612       25.28260
H         78.29125       97.55396       26.18799

Ca 1.0



