%chk=holoCaM-CaMKII.loop4.water1.frame357.chk
%nprocshared=20
%mem=10GB
%nosave
#b3lyp/svp scf=(tight,noincore,xqc) Test 
#IOP(5/87=12) Density=Current Pop=(MK,readradii) iop(6/33=2) iop(6/42=6)

holoCaM-CaMKII.loop4.water1.frame357 

   -3  1 
C         58.97571       56.69654        3.60868
C         58.18988       56.55249        2.34448
O         57.34564       55.67059        2.27005
H         59.71214       57.52405        3.53194
H         58.28330       56.91629        4.44865
H         59.51733       55.75080        3.81051
N         58.38788       57.41334        1.31045
C         57.58506       57.36069        0.10511
C         58.12116       56.29236       -0.84882
O         59.30966       56.32017       -1.13715
C         57.56791       58.74752       -0.57537
C         56.41971       58.84006       -1.52393
O         56.23147       59.84528       -2.17474
O         55.53727       57.83719       -1.57287
H         59.05826       58.18921        1.42790
H         56.53607       57.15516        0.42207
H         58.53539       58.95090       -1.08298
H         57.38743       59.54165        0.18159
N         57.30271       55.34955       -1.40766
C         57.78080       54.26967       -2.27844
C         57.50034       54.54303       -3.76003
O         58.27997       54.05820       -4.57009
C         57.19573       52.88993       -1.82505
C         57.55046       52.60618       -0.34040
C         57.68036       51.73948       -2.73737
C         56.94359       51.30838        0.20550
H         56.29898       55.39920       -1.20506
H         58.89016       54.20669       -2.19631
H         56.08762       52.94184       -1.91283
H         57.15578       53.43222        0.28860
H         58.65418       52.56767       -0.21215
H         57.21766       50.77367       -2.45601
H         57.36896       51.90236       -3.78841
H         58.78583       51.64123       -2.69474
H         57.18204       51.21285        1.28531
H         55.83954       51.31465        0.08419
H         57.36580       50.41562       -0.29904
N         56.45289       55.30557       -4.20294
C         56.21692       55.56948       -5.63096
C         56.48972       57.02600       -6.01658
O         56.34241       57.34974       -7.18749
C         54.83983       55.04678       -6.12850
C         53.60667       55.65995       -5.53341
O         52.50942       55.38299       -5.98575
O         53.67839       56.45585       -4.47152
H         55.82436       55.73120       -3.50986
H         56.94775       54.99661       -6.24379
H         54.77981       53.94820       -5.96983
H         54.79515       55.22798       -7.22440
N         57.02674       57.91882       -5.13342
C         57.60117       59.19059       -5.55420
C         56.64353       60.33922       -5.79568
O         57.14364       61.40846       -6.11886
H         57.22544       57.61898       -4.16873
H         58.23288       59.02572       -6.45522
H         58.28297       59.53750       -4.74737
N         55.29098       60.25464       -5.62849
C         54.42261       61.43134       -5.77714
C         54.57110       62.45363       -4.62786
O         53.84294       63.43631       -4.63078
C         52.94606       61.01739       -5.99329
C         52.27317       60.35350       -4.83145
O         51.10534       60.01414       -4.92542
O         52.92893       60.14370       -3.68328
H         54.86960       59.34060       -5.40683
H         54.69064       61.94279       -6.72890
H         52.89671       60.33175       -6.86722
H         52.35742       61.92692       -6.24423
N         55.49984       62.30954       -3.63368
C         55.75289       63.29246       -2.59019
C         54.98662       63.06524       -1.29743
O         55.21182       63.83913       -0.37792
H         56.17684       61.54962       -3.69358
H         55.57696       64.32020       -2.97480
H         56.83302       63.23853       -2.32826
N         54.06701       62.06633       -1.13774
C         53.29158       61.88140        0.09325
C         53.38266       60.46528        0.63625
O         53.94229       59.59971       -0.01864
C         51.84140       62.37683       -0.12657
C         51.07789       61.85137       -1.36043
C         50.56819       60.43577       -1.27034
N         49.23784       60.19570       -1.35557
O         51.34440       59.50014       -1.16306
H         53.87145       61.44532       -1.92861
H         53.71183       62.52113        0.89987
H         51.94015       63.47128       -0.29739
H         51.22825       62.24744        0.79112
H         51.68936       61.97453       -2.27563
H         50.19827       62.51713       -1.48892
H         48.56197       60.96528       -1.46439
H         48.87177       59.23775       -1.33374
N         52.89146       60.18060        1.88076
C         52.97965       58.86408        2.50870
C         51.57989       58.42100        2.92088
O         50.92204       59.13088        3.66911
C         53.93919       58.90138        3.73485
C         54.17710       57.48386        4.29090
C         55.30213       59.51069        3.36240
H         52.47448       60.94626        2.43201
H         53.41377       58.13021        1.79586
H         53.49384       59.53337        4.53457
H         53.22641       57.00804        4.60225
H         54.66326       56.84257        3.52350
H         54.84481       57.52072        5.17812
H         55.97342       59.52092        4.24812
H         55.78976       58.92803        2.55124
H         55.18182       60.56200        3.02715
N         51.07600       57.23590        2.48406
C         49.75929       56.71309        2.84259
C         49.87236       55.79544        4.03984
O         50.95609       55.64958        4.57704
C         49.21232       55.90309        1.64826
C         49.04229       56.76476        0.43510
N         49.76643       56.53084       -0.68300
O         48.23590       57.68146        0.46215
H         51.68327       56.63320        1.91770
H         49.05502       57.53623        3.09711
H         48.22491       55.45109        1.87529
H         49.91936       55.07091        1.43248
H         50.45452       55.76524       -0.72051
H         49.64374       57.12013       -1.51536
N         48.78176       55.12633        4.50850
C         48.85867       54.11091        5.55302
C         49.68265       52.92730        5.06148
O         50.60552       52.51958        5.75161
C         47.43981       53.64765        5.94369
C         47.45459       52.62854        7.06071
C         47.98687       52.95209        8.32236
C         46.92765       51.34389        6.85039
C         47.99480       52.00477        9.35058
C         46.93492       50.39928        7.88056
C         47.46946       50.72689        9.13480
O         47.48184       49.82514       10.13699
H         47.86395       55.31998        4.07991
H         49.32690       54.55557        6.45883
H         46.93202       53.23196        5.04573
H         46.85128       54.52703        6.28458
H         48.39483       53.93636        8.51409
H         46.51070       51.07162        5.88899
H         48.40841       52.26540       10.31701
H         46.52422       49.41374        7.70221
H         47.12589       48.93158       10.02899
N         49.40366       52.33584        3.86023
C         50.16019       51.20410        3.32528
C         51.64308       51.51157        3.09173
O         52.38227       50.57203        2.82990
C         49.54441       50.61037        2.02045
C         49.64156       51.48819        0.74771
C         48.57793       52.54053        0.56426
O         48.65013       53.29247       -0.39410
O         47.49006       52.59787        1.35462
H         48.60750       52.70182        3.33656
H         50.10643       50.40172        4.09567
H         48.50150       50.26091        2.17679
H         50.14574       49.69848        1.80483
H         49.54091       50.82491       -0.13824
H         50.65068       51.94397        0.69169
N         52.15500       52.77569        3.18129
C         53.57677       53.08012        3.03605
C         54.19483       53.42087        4.38687
O         55.40018       53.27291        4.53182
C         53.79638       54.24398        2.04341
C         53.19240       53.95865        0.66050
C         53.44370       55.07185       -0.31971
O         53.98644       54.83204       -1.38437
O         53.03238       56.32574       -0.06128
H         51.52319       53.55716        3.38069
H         54.11756       52.18477        2.65724
H         54.88634       54.43519        1.94131
H         53.32270       55.15727        2.46034
H         52.09511       53.83688        0.76008
H         53.62586       53.01772        0.25815
N         53.43900       53.87877        5.42411
C         53.97651       54.18618        6.72751
H         54.76543       54.96126        6.64424
H         53.16341       54.57710        7.37946
H         54.38499       53.26468        7.19060
H         52.43912       54.03010        5.30194
Ca        53.70101       57.77494       -2.73500
O         50.99530       57.19123       -3.62533
H         50.36083       57.53320       -4.30220
H         50.99298       56.20956       -3.75214

Ca 1.0



