%chk=holoCaM-CaMKII.loop1.water2.frame1.chk
%nprocshared=20
%mem=10GB
%nosave
#b3lyp/svp scf=(tight,noincore,xqc) Test 
#IOP(5/87=12) Density=Current Pop=(MK,readradii) iop(6/33=2) iop(6/42=6)

holoCaM-CaMKII.loop1.water2.frame1 

   0  1 
C         69.44028       52.38334       43.24111
C         70.32077       52.95280       42.16879
O         71.50559       52.67257       42.16373
H         68.63879       51.77008       42.77776
H         70.02369       51.74554       43.93783
H         68.97661       53.21258       43.81671
N         69.77522       53.75117       41.21232
C         70.49097       54.39403       40.10580
C         71.42949       55.49868       40.62416
O         71.08367       56.66928       40.52348
C         69.41228       54.99217       39.16578
C         69.90360       55.72085       37.95037
O         69.12759       56.46505       37.37682
O         71.14552       55.58720       37.45175
H         68.75284       53.88925       41.27129
H         71.05047       53.63410       39.52719
H         68.82994       55.72697       39.76510
H         68.70142       54.20818       38.82542
N         72.62371       55.20948       41.21909
C         73.45465       56.23938       41.83759
C         74.12378       57.19043       40.84014
O         74.73283       58.14635       41.30151
C         74.55880       55.61481       42.72612
C         74.08266       54.68395       43.86204
C         73.03383       55.32938       44.78443
C         72.88521       54.60443       46.13567
N         72.51010       53.19639       46.00484
H         72.92497       54.23324       41.29018
H         72.79944       56.84570       42.50065
H         75.11847       56.44709       43.20810
H         75.27650       55.04793       42.09249
H         74.99039       54.43708       44.45487
H         73.67654       53.73358       43.45632
H         72.05547       55.37076       44.25561
H         73.34622       56.36832       45.02375
H         72.11128       55.13504       46.73407
H         73.84774       54.67508       46.68933
H         72.41145       52.78931       46.96373
H         71.59890       53.10657       45.50203
H         73.25575       52.66161       45.50499
N         74.10234       56.99239       39.48742
C         74.80564       57.86430       38.53925
C         73.86978       58.55581       37.54671
O         74.36367       59.30598       36.71589
C         75.94716       57.08192       37.85472
C         75.51253       55.80376       37.20172
O         76.02919       54.63596       37.62994
O         74.70803       55.81195       36.28506
H         73.60906       56.17255       39.10674
H         75.30818       58.70158       39.07148
H         76.69629       56.82378       38.63595
H         76.45959       57.72677       37.10798
N         72.51423       58.43547       37.62178
C         71.59305       59.22079       36.81185
C         71.64846       58.91034       35.33215
O         71.85678       59.81511       34.53723
H         72.09778       57.83308       38.34331
H         71.78252       60.30249       36.98718
H         70.55675       59.00576       37.15237
N         71.41045       57.64571       34.89744
C         71.28791       57.24253       33.50247
C         69.91856       56.60233       33.23512
O         69.71779       56.06998       32.15239
C         72.47259       56.32856       33.10836
C         72.62074       55.02622       33.85220
O         73.55114       54.28735       33.57444
O         71.76312       54.65763       34.81704
H         71.27500       56.92357       35.60428
H         71.36662       58.12484       32.82965
H         73.40884       56.90954       33.25888
H         72.39125       56.09658       32.02428
N         68.90560       56.67600       34.15309
C         67.56633       56.14448       33.94456
C         67.45049       54.63468       34.04195
O         66.33237       54.15472       33.90936
H         69.04422       57.21582       35.01584
H         67.17097       56.50390       32.96933
H         66.90465       56.55102       34.74076
N         68.52107       53.81684       34.26641
C         68.41259       52.35969       34.35376
C         69.03721       51.81770       35.63469
O         69.68810       52.56167       36.35849
C         69.06971       51.70525       33.11423
C         68.35617       52.09435       31.81196
O         70.43902       52.01585       33.03715
H         69.45342       54.23301       34.34852
H         67.34140       52.05952       34.36969
H         68.97903       50.60146       33.20400
H         70.53175       52.96512       32.76286
H         68.83476       51.57570       30.95492
H         67.28796       51.79423       31.85762
H         68.41366       53.18993       31.63771
N         68.83298       50.51278       35.98967
C         69.38059       49.89126       37.19462
C         70.06338       48.58320       36.80408
O         69.37408       47.68115       36.34356
C         68.23201       49.62338       38.22168
C         67.49924       50.94358       38.58020
C         68.77440       48.94083       39.49452
C         66.26516       50.74266       39.46400
H         68.21357       49.93804       35.39618
H         70.11799       50.57098       37.67691
H         67.49426       48.93863       37.74531
H         67.13346       51.42352       37.64856
H         68.20177       51.64529       39.08074
H         67.95904       48.68334       40.19825
H         69.26176       47.98179       39.24677
H         69.50627       49.59655       40.01164
H         65.76543       51.72081       39.62477
H         65.54601       50.05667       38.96697
H         66.53135       50.33913       40.46080
N         71.40816       48.39815       36.95500
C         72.05772       47.12098       36.64629
C         71.73657       46.10784       37.73853
O         71.12870       46.48091       38.72627
C         73.59997       47.26487       36.51532
C         74.01050       48.31897       35.48692
O         74.16868       47.59694       37.75160
H         71.97796       49.18197       37.29163
H         71.68042       46.76455       35.66168
H         73.99328       46.27830       36.17353
H         75.10340       47.26134       37.73818
H         73.70662       49.32457       35.83313
H         75.11577       48.32755       35.37992
H         73.55364       48.10771       34.49835
N         72.13259       44.80900       37.65234
C         71.93264       43.86723       38.75580
C         72.78356       44.24809       39.96356
O         72.33563       44.05255       41.08483
C         72.21954       42.40872       38.33077
C         71.20880       41.93694       37.27933
O         73.52084       42.27643       37.81848
H         72.59738       44.48921       36.78951
H         70.86307       43.88754       39.06779
H         72.08117       41.73397       39.21011
H         74.12511       42.13417       38.59271
H         71.26817       42.55250       36.35792
H         71.40360       40.87738       37.01209
H         70.17576       42.00648       37.68584
N         74.02608       44.79066       39.80542
C         74.88944       45.17296       40.92442
C         74.21474       46.24888       41.75867
O         74.07624       46.08413       42.96222
C         76.26734       45.69145       40.43637
C         77.03245       44.65236       39.58784
C         78.41823       45.14541       39.13017
C         79.47084       45.27679       40.24787
N         79.81598       43.97917       40.83509
H         74.36025       44.94597       38.84485
H         75.08775       44.28030       41.55893
H         76.86769       45.94341       41.33636
H         76.14037       46.61987       39.83858
H         76.45495       44.45209       38.66389
H         77.12208       43.69065       40.13206
H         78.29438       46.12819       38.62470
H         78.81690       44.43196       38.37643
H         79.13140       45.97707       41.03950
H         80.39105       45.70903       39.79561
H         80.14984       43.32471       40.08981
H         80.58721       44.11234       41.52814
H         78.99834       43.56276       41.33285
N         73.73891       47.37029       41.15204
C         73.05135       48.45940       41.83762
C         71.85165       47.94221       42.60775
O         71.74909       48.22489       43.79328
C         72.62348       49.54676       40.82525
C         73.85300       50.22891       40.19867
C         73.47069       51.37189       39.31865
O         73.93034       52.60404       39.60062
O         72.77264       51.19372       38.33548
H         73.84617       47.42904       40.13331
H         73.74172       48.94099       42.56630
H         72.03644       50.31867       41.36436
H         71.97467       49.11136       40.03165
H         74.44707       49.51231       39.59769
H         74.50033       50.62567       41.00964
N         70.93126       47.14043       42.00879
C         69.78867       46.57398       42.69417
H         68.86015       46.85962       42.15857
H         69.87736       45.46670       42.69474
H         69.71160       46.91931       43.74619
H         71.06468       46.88301       41.02704
Ca        72.60795       53.90395       37.60236
O         72.48939       51.25842       34.75870
H         72.16329       50.48415       34.23373
H         73.43590       51.35543       34.48645
O         75.25559       51.74466       36.40785
H         76.18250       51.98341       36.15643
H         74.84658       52.59980       36.69006

Ca 1.0



