%chk=holoCaM.loop3.water2.frame292.chk
%nprocshared=20
%mem=10GB
%nosave
#b3lyp/svp scf=(tight,noincore,xqc) Test 
#IOP(5/87=12) Density=Current Pop=(MK,readradii) iop(6/33=2) iop(6/42=6)

holoCaM.loop3.water2.frame292 

   0  1 
C         28.05052       62.14586       81.44380
C         28.89950       63.36255       81.22042
O         28.87028       64.26212       82.04748
H         26.98151       62.44097       81.48920
H         28.17728       61.40824       80.62292
H         28.33971       61.66091       82.39937
N         29.67028       63.46395       80.10231
C         30.52041       64.60329       79.79427
C         29.90931       65.34020       78.62951
O         30.43964       65.33780       77.52763
C         31.96571       64.11653       79.57092
C         32.91238       65.19407       79.10904
O         33.52317       65.02447       78.06730
O         33.09732       66.34247       79.79692
H         29.63467       62.70247       79.40695
H         30.53369       65.31814       80.62997
H         31.96704       63.30127       78.81454
H         32.34973       63.69589       80.51962
N         28.74455       66.00796       78.84278
C         28.02936       66.73988       77.81134
C         28.87135       67.89067       77.27285
O         29.08954       67.92256       76.06934
C         26.64730       67.20616       78.33209
C         25.76868       65.98704       78.70875
C         24.32783       66.37722       79.06582
C         23.42709       65.14944       79.32059
N         23.80907       64.39937       80.51981
H         28.34914       65.98188       79.79527
H         27.81646       66.04571       76.96666
H         26.14114       67.76096       77.51215
H         26.75648       67.88818       79.20414
H         26.22255       65.44459       79.56149
H         25.72696       65.29875       77.83653
H         23.89814       66.92730       78.20069
H         24.31214       67.04924       79.95085
H         23.44848       64.47596       78.43431
H         22.38081       65.50506       79.44690
H         23.76458       65.01999       81.36023
H         23.13562       63.60992       80.65217
H         24.76576       63.99251       80.42406
N         29.39996       68.85727       78.08721
C         30.19846       69.97319       77.55671
C         31.47289       69.53808       76.82048
O         32.05396       70.36492       76.13108
C         30.54344       71.02043       78.63854
C         31.48508       70.50466       79.69446
O         32.58699       71.01177       79.83057
O         31.11379       69.50292       80.51078
H         29.19236       68.81154       79.09535
H         29.55013       70.48531       76.81058
H         29.61223       71.38163       79.12506
H         31.01637       71.89402       78.13584
N         31.94274       68.26136       76.88311
C         33.02290       67.75510       76.05353
C         34.38424       68.34513       76.33920
O         34.99821       68.85688       75.41364
H         31.47114       67.58233       77.49093
H         32.75591       67.90319       74.98372
H         33.10738       66.66192       76.21310
N         34.95177       68.24136       77.57670
C         36.34146       68.61600       77.85371
C         37.18646       67.43962       78.36314
O         38.39479       67.60653       78.46033
C         36.41589       69.83505       78.79992
C         35.83454       69.65210       80.18327
N         35.89393       70.67143       81.06972
O         35.31074       68.60163       80.51508
H         34.37780       67.85525       78.33469
H         36.82698       68.93623       76.90580
H         35.88510       70.68350       78.31644
H         37.48402       70.12345       78.91225
H         36.33150       71.56783       80.81120
H         35.50596       70.56414       82.01787
N         36.64133       66.23211       78.70262
C         37.41110       65.06669       79.11851
C         37.16925       64.67423       80.56661
O         37.67035       63.63701       80.97244
H         35.62664       66.10568       78.66735
H         38.50446       65.22993       79.00068
H         37.12761       64.22152       78.45502
N         36.49913       65.49617       81.42662
C         36.37287       65.25239       82.86007
C         34.94462       65.45683       83.31158
O         34.34617       66.43798       82.90323
C         37.21142       66.28002       83.65313
C         38.69602       66.18864       83.40220
C         39.24883       66.57522       82.16898
C         39.55041       65.73879       84.42306
C         40.62754       66.50138       81.95833
C         40.92851       65.66510       84.21035
C         41.47199       66.04636       82.97574
O         42.80073       65.98500       82.75896
H         36.14549       66.39277       81.07782
H         36.73546       64.24137       83.15025
H         37.01915       66.08378       84.73298
H         36.87698       67.31987       83.44481
H         38.62042       66.94726       81.37164
H         39.15132       65.44123       85.38517
H         41.03918       66.80434       81.00402
H         41.57151       65.31401       85.00730
H         43.41799       65.68173       83.43985
N         34.40153       64.67255       84.28983
C         33.13162       65.01086       84.93619
C         33.35572       65.34993       86.40071
O         34.43073       65.12190       86.93255
C         32.07349       63.87847       84.78755
C         32.51331       62.55602       85.46957
C         31.74756       63.67370       83.30657
C         31.41773       61.48663       85.47993
H         34.94420       63.87482       84.64979
H         32.70709       65.92932       84.47847
H         31.14090       64.22044       85.28573
H         32.76481       62.76106       86.53200
H         33.41504       62.14247       84.97079
H         31.42012       64.63450       82.86128
H         32.64015       63.30188       82.76446
H         30.91845       62.95331       83.17448
H         31.78134       60.59116       86.02597
H         30.51260       61.87148       85.99558
H         31.14865       61.16423       84.45432
N         32.33189       65.90155       87.10899
C         32.36253       66.14919       88.54452
C         31.23831       65.35428       89.18951
O         30.50621       64.68060       88.48497
C         32.20746       67.65749       88.80939
O         30.98925       68.12507       88.29868
H         31.46337       66.13243       86.60913
H         33.32670       65.81853       88.98644
H         33.04666       68.19748       88.31677
H         32.25360       67.84932       89.90478
H         30.90756       69.06959       88.59201
N         31.02965       65.38632       90.53387
C         29.89212       64.70648       91.14830
C         28.58302       65.28803       90.63257
O         27.66796       64.52876       90.34400
C         29.95533       64.81802       92.67243
H         31.67714       65.92511       91.12737
H         29.93501       63.61858       90.91418
H         29.10654       64.25973       93.12454
H         30.89932       64.35901       93.03873
H         29.91323       65.87668       93.00131
N         28.44767       66.63377       90.44916
C         27.23475       67.27120       89.94340
C         26.83276       66.73141       88.58424
O         25.70173       66.29122       88.43426
C         27.43996       68.78859       89.83288
H         29.25717       67.23568       90.66926
H         26.40637       67.09562       90.66503
H         27.70314       69.21195       90.82456
H         28.25608       69.03043       89.11787
H         26.50582       69.27608       89.47942
N         27.71429       66.74094       87.54561
C         27.37691       66.27833       86.20183
C         26.90685       64.83546       86.24908
O         25.79098       64.56275       85.82891
C         28.58688       66.40904       85.25363
C         29.06251       67.86328       85.06515
C         30.25756       67.88317       84.16127
O         31.33252       68.30602       84.55637
O         30.14616       67.38803       82.91813
H         28.66583       67.08444       87.73253
H         26.55579       66.90903       85.79178
H         28.30372       66.00117       84.25756
H         29.42261       65.79840       85.64789
H         29.34300       68.32070       86.03566
H         28.25011       68.47187       84.61370
N         27.69968       63.86763       86.78545
C         27.30191       62.48285       86.92599
H         26.28684       62.28988       86.52157
H         28.02644       61.83425       86.39280
H         27.30604       62.21379       88.00389
H         28.62688       64.12543       87.13931
Ca        31.92135       66.97159       81.60930
O         32.91727       71.21459       82.98729
H         33.19758       71.96028       82.39953
H         33.45198       71.33800       83.81126
O         34.54538       68.90755       84.18367
H         34.44005       68.33001       84.98087
H         35.44270       69.31287       84.28426

Ca 1.0



