%chk=holoCaM-CaMKII.loop2.water2.frame405.chk
%nprocshared=20
%mem=10GB
%nosave
#b3lyp/svp scf=(tight,noincore,xqc) Test 
#IOP(5/87=12) Density=Current Pop=(MK,readradii) iop(6/33=2) iop(6/42=6)

holoCaM-CaMKII.loop2.water2.frame405 

   -2  1 
C         55.99244       65.46001       42.85341
C         56.61871       64.36903       42.02686
O         57.26248       63.49328       42.58412
H         55.27524       65.01317       43.57484
H         56.77330       66.01619       43.41029
H         55.43157       66.18111       42.21965
N         56.43393       64.34394       40.68026
C         56.91062       63.27230       39.81232
C         58.42903       63.21437       39.70680
O         59.02779       64.20978       39.32261
C         56.31996       63.47201       38.40409
C         56.73466       62.36056       37.49722
O         56.49422       61.08936       37.86042
O         57.32431       62.59995       36.45607
H         55.86225       65.09483       40.26111
H         56.51708       62.30608       40.20130
H         56.63894       64.44962       37.97861
H         55.21353       63.47253       38.47215
N         59.10354       62.04648       39.95377
C         60.54586       61.89883       39.75246
C         60.93046       60.79899       38.74920
O         62.11314       60.71168       38.44859
C         61.21278       61.61504       41.10061
H         58.57225       61.23065       40.29384
H         60.96953       62.84854       39.35975
H         60.83872       60.65744       41.52318
H         62.31611       61.54946       40.98541
H         60.98658       62.43452       41.81537
N         60.03417       59.90715       38.22115
C         60.41970       58.81389       37.30780
C         59.63349       58.79209       35.99610
O         59.97806       57.99155       35.13691
C         60.27351       57.44969       38.02116
C         58.93290       57.32789       38.68199
O         58.87507       57.22309       39.89744
O         57.79451       57.50305       37.98662
H         59.05257       59.95856       38.52380
H         61.48669       58.91566       37.01307
H         61.05259       57.38387       38.81278
H         60.44423       56.60975       37.31375
N         58.57433       59.61216       35.76074
C         57.83227       59.62943       34.51151
C         57.18164       58.30364       34.18376
O         57.48013       57.76020       33.12935
H         58.28650       60.27454       36.48199
H         58.52137       59.92237       33.68906
H         57.03224       60.39872       34.57226
N         56.25639       57.74133       35.01680
C         55.53976       56.50486       34.68819
C         54.03236       56.71951       34.52628
O         53.35771       55.78171       34.12424
C         55.87555       55.38512       35.70092
C         55.45448       55.62116       37.13237
N         55.71994       54.68058       38.06677
O         54.87970       56.64588       37.46094
H         56.04661       58.22335       35.90291
H         55.88432       56.13083       33.69974
H         56.97619       55.22809       35.68971
H         55.39469       54.44276       35.35915
H         56.20818       53.80911       37.81442
H         55.43545       54.82115       39.04508
N         53.43412       57.91572       34.80198
C         52.02948       58.20811       34.55814
C         51.17757       58.22144       35.81353
O         50.01337       58.57839       35.70401
H         53.99472       58.68564       35.17123
H         51.57627       57.46358       33.86895
H         51.97385       59.19426       34.04808
N         51.63781       57.74280       37.00658
C         50.78274       57.53609       38.17610
C         51.39098       58.12073       39.44563
O         52.48188       58.67094       39.40838
C         50.55019       56.00670       38.34459
C         49.73750       55.43965       37.17792
O         51.77285       55.31807       38.42669
H         52.59861       57.38577       37.05915
H         49.79091       58.02098       38.04072
H         49.93997       55.78803       39.24746
H         52.14227       55.48600       39.33222
H         49.55686       54.35570       37.33704
H         48.75209       55.95136       37.11891
H         50.27047       55.56932       36.21344
N         50.73099       57.96592       40.63234
C         51.26386       58.34229       41.93407
C         51.82634       57.09281       42.58711
O         51.09079       56.14399       42.82292
C         50.14820       59.01275       42.80430
C         49.77361       60.42988       42.29569
C         50.48547       59.05519       44.30797
C         50.86041       61.49749       42.50372
H         49.83827       57.45201       40.63248
H         52.10382       59.04744       41.82404
H         49.23788       58.37666       42.72599
H         48.87014       60.77387       42.84578
H         49.51134       60.37948       41.21779
H         51.42552       59.60526       44.49669
H         49.65807       59.53340       44.87432
H         50.59440       58.02882       44.71420
H         51.08979       61.63446       43.58127
H         51.79509       61.24546       41.97001
H         50.49759       62.47363       42.12085
N         53.14618       57.05359       42.93146
C         53.74898       55.98019       43.71008
C         53.55139       56.28595       45.18092
O         52.99547       57.32678       45.49398
C         55.25732       55.87977       43.39635
C         55.52616       55.58730       41.94806
O         55.17153       56.37155       41.08278
O         56.19042       54.46892       41.60044
H         53.71911       57.89179       42.76915
H         53.25835       55.01104       43.46966
H         55.70739       55.06693       44.00444
H         55.76280       56.83462       43.66319
N         53.95720       55.42375       46.15508
C         53.73075       55.73246       47.56066
C         54.51762       56.97530       47.98770
O         53.88727       57.88113       48.51599
C         54.00624       54.52984       48.48668
C         53.37391       54.78447       49.83223
C         51.99911       54.54233       50.00534
C         54.12213       55.30057       50.90155
C         51.38414       54.80467       51.23068
C         53.49958       55.57065       52.12569
C         52.13303       55.32114       52.29019
H         54.38775       54.52508       45.89141
H         52.63870       55.93287       47.66757
H         55.07892       54.29619       48.59444
H         53.53737       53.61412       48.06375
H         51.40458       54.15065       49.18833
H         55.17782       55.50937       50.78162
H         50.32593       54.61273       51.35493
H         54.07447       55.97895       52.94611
H         51.65227       55.53139       53.23655
N         55.86981       57.12850       47.77553
C         56.63109       58.32781       48.12239
C         55.97306       59.61609       47.66919
O         55.86743       60.54926       48.45122
C         57.95413       58.14890       47.35876
C         58.13666       56.65605       47.40556
C         56.72576       56.16701       47.09881
H         56.81246       58.33683       49.22068
H         57.82025       58.40362       46.28141
H         58.80033       58.75155       47.75213
H         58.92123       56.24957       46.73181
H         58.38691       56.38413       48.45636
H         56.51007       56.20663       46.01145
H         56.64796       55.13167       47.46787
N         55.49803       59.71312       46.39790
C         54.88182       60.91128       45.83630
C         53.67572       61.30994       46.66343
O         53.63026       62.43708       47.13612
C         54.49474       60.67000       44.35618
C         55.74247       60.35651       43.50434
C         55.45379       60.00140       42.07937
O         56.47038       59.53336       41.34189
O         54.33004       60.04580       41.61292
H         55.56709       58.86914       45.81234
H         55.61714       61.74745       45.85213
H         53.99607       61.57410       43.94309
H         53.78586       59.81719       44.29772
H         56.26847       59.47366       43.91390
H         56.45061       61.20904       43.53040
N         52.68581       60.41210       46.92040
C         51.53479       60.69429       47.75170
H         50.60760       60.51998       47.16849
H         51.54221       60.00825       48.62556
H         51.52877       61.73844       48.12727
H         52.76374       59.46399       46.53743
Ca        56.33764       58.54168       39.33306
O         54.04858       60.06425       37.19315
H         54.66131       60.34640       36.46840
H         53.17618       60.44845       36.93056
O         53.48355       61.73685       39.48794
H         53.11675       62.63217       39.28418
H         52.69406       61.20887       39.76222

Ca 1.0



