%chk=holoCaM-CaMKII.loop2.water2.frame217.chk
%nprocshared=20
%mem=10GB
%nosave
#b3lyp/svp scf=(tight,noincore,xqc) Test 
#IOP(5/87=12) Density=Current Pop=(MK,readradii) iop(6/33=2) iop(6/42=6)

holoCaM-CaMKII.loop2.water2.frame217 

   -2  1 
C         19.60855       49.28458       55.12386
C         19.00835       49.24613       56.50170
O         19.70809       49.46356       57.47943
H         20.69597       49.50263       55.16052
H         19.45006       48.31025       54.61467
H         19.10784       50.07969       54.52900
N         17.68238       48.98666       56.63546
C         16.95599       49.00407       57.90087
C         17.45015       47.96594       58.90084
O         17.50505       46.79125       58.56502
C         15.46280       48.76723       57.61595
C         14.66547       48.78458       58.87856
O         13.97540       47.82304       59.17462
O         14.74500       49.84245       59.70742
H         17.14915       48.81114       55.76821
H         17.05139       50.01772       58.34696
H         15.31794       47.79340       57.09782
H         15.08815       49.56992       56.94850
N         17.74287       48.34188       60.18515
C         18.14161       47.41164       61.23826
C         17.18919       47.39463       62.44795
O         17.41555       46.56669       63.31967
C         19.55432       47.78292       61.70660
H         17.67456       49.33819       60.42890
H         18.17303       46.37705       60.83425
H         19.56235       48.80843       62.13764
H         19.91702       47.07080       62.47806
H         20.26018       47.75718       60.84902
N         16.15485       48.28120       62.61225
C         15.31472       48.32784       63.82627
C         13.80267       48.41640       63.56341
O         13.05259       48.43453       64.52992
C         15.78052       49.48233       64.74042
C         15.70241       50.84183       64.11671
O         15.22368       51.00291       62.87395
O         16.14287       51.80743       64.71943
H         16.03001       49.01056       61.90230
H         15.46960       47.40310       64.42348
H         16.84571       49.29716       65.00131
H         15.19566       49.48470       65.68563
N         13.27398       48.43963       62.30815
C         11.84077       48.41446       62.02657
C         11.05876       49.68485       62.33853
O          9.85160       49.66035       62.14265
H         13.90947       48.37099       61.51239
H         11.38910       47.55808       62.57150
H         11.70019       48.22894       60.93932
N         11.64256       50.83004       62.79416
C         10.89345       52.06083       63.09091
C         10.29623       52.77382       61.85781
O          9.71192       53.83410       62.03627
C         11.77850       53.02387       63.92249
C         13.01407       53.52893       63.22827
N         13.88338       54.32132       63.89535
O         13.24294       53.22134       62.07126
H         12.65278       50.81530       62.98334
H         10.04950       51.80013       63.76733
H         12.10018       52.48325       64.83931
H         11.17626       53.90191       64.24261
H         13.71350       54.57812       64.87847
H         14.73351       54.67172       63.43345
N         10.35945       52.25256       60.59603
C          9.75486       52.87200       59.42056
C         10.51821       54.05551       58.84582
O         10.08042       54.56582       57.82471
H         10.77810       51.32955       60.45379
H          8.70059       53.15017       59.64035
H          9.73182       52.11314       58.60810
N         11.65910       54.54020       59.41434
C         12.43662       55.65341       58.87049
C         13.89245       55.25266       58.63711
O         14.28299       54.13819       58.94746
C         12.34952       56.85963       59.84229
C         10.92831       57.42532       59.88213
O         12.73144       56.48763       61.14252
H         11.99206       54.12156       60.28553
H         12.03668       55.97432       57.88311
H         12.98957       57.69964       59.49227
H         13.71447       56.35353       61.13108
H         10.20340       56.66550       60.24110
H         10.89130       58.30288       60.56154
H         10.62591       57.76117       58.86597
N         14.75802       56.16327       58.10589
C         16.18302       55.94329       57.87469
C         16.95110       56.80129       58.86328
O         16.62389       57.96404       59.05369
C         16.54207       56.27874       56.39716
C         15.89687       55.22919       55.45517
C         18.07344       56.32046       56.18470
C         15.95516       55.61422       53.97678
H         14.39573       57.10028       57.87565
H         16.46922       54.88314       58.05919
H         16.13671       57.28872       56.16692
H         14.82277       55.10395       55.70727
H         16.39901       54.24718       55.59654
H         18.53491       55.33971       56.42834
H         18.33340       56.59238       55.14381
H         18.53956       57.09888       56.82370
H         15.47586       54.81566       53.37194
H         15.39885       56.56155       53.81533
H         16.99487       55.73130       53.61389
N         18.01681       56.26262       59.51544
C         18.77328       56.92944       60.56719
C         20.16125       57.24292       60.06308
O         20.45112       56.96856       58.90647
C         18.88576       55.97953       61.77583
C         17.56851       55.42394       62.21258
O         16.82652       54.75807       61.31153
O         17.23201       55.45927       63.38483
H         18.31214       55.30977       59.26140
H         18.27907       57.87709       60.87236
H         19.40056       56.46707       62.63094
H         19.49438       55.10012       61.46659
N         21.08298       57.83372       60.87552
C         22.42066       58.13332       60.39696
C         23.18053       56.85499       60.04791
O         23.69369       56.80377       58.93928
C         23.21523       59.03595       61.36825
C         24.42041       59.61315       60.66416
C         25.72390       59.27511       61.06011
C         24.23823       60.50117       59.58604
C         26.82390       59.80851       60.37868
C         25.33747       61.03214       58.91192
C         26.63041       60.68458       59.30571
H         20.81635       58.10487       61.83344
H         22.28524       58.73558       59.47234
H         23.52076       58.48666       62.27600
H         22.58389       59.88925       61.69827
H         25.88878       58.59270       61.88438
H         23.24303       60.78584       59.26638
H         27.82758       59.54082       60.67996
H         25.18346       61.71182       58.08347
H         27.48098       61.09562       58.77864
N         23.29562       55.76727       60.88560
C         24.05840       54.57087       60.53938
C         23.47547       53.74359       59.39932
O         24.09200       52.75359       59.03241
C         24.06539       53.74090       61.83239
C         23.90541       54.81141       62.89895
C         22.83288       55.67983       62.25543
H         25.09435       54.90260       60.30202
H         23.13980       53.11963       61.88007
H         24.94061       53.06516       61.94408
H         23.63976       54.41735       63.90280
H         24.84912       55.39904       62.97044
H         21.87139       55.11836       62.26486
H         22.67699       56.63334       62.78095
N         22.28452       54.06925       58.81384
C         21.65812       53.29590       57.74698
C         21.59645       54.09629       56.45006
O         21.18528       53.53792       55.44176
C         20.22054       52.92264       58.16710
C         20.14740       52.22317       59.53658
C         18.73564       52.03100       60.02068
O         18.52945       51.50421       61.24169
O         17.77757       52.38090       59.34875
H         21.76794       54.88871       59.14987
H         22.24398       52.37186       57.54868
H         19.74299       52.28618       57.38934
H         19.64541       53.86717       58.23538
H         20.65016       52.85197       60.30056
H         20.66212       51.24036       59.48822
N         21.96640       55.40846       56.39310
C         21.91247       56.18718       55.17847
H         22.60184       55.75598       54.42393
H         20.87618       56.20585       54.78285
H         22.22752       57.23229       55.39227
H         22.28515       55.89843       57.23304
Ca        15.89000       52.84077       61.84928
O         12.83490       51.56825       59.12906
H         12.71590       52.10899       58.31128
H         12.41419       50.69870       58.91047
O         15.33604       52.07764       57.39702
H         16.19597       52.49523       57.14509
H         14.78473       52.11956       56.57591

Ca 1.0



