%chk=holoCaM-CaMKII.loop2.water2.frame57.chk
%nprocshared=20
%mem=10GB
%nosave
#b3lyp/svp scf=(tight,noincore,xqc) Test 
#IOP(5/87=12) Density=Current Pop=(MK,readradii) iop(6/33=2) iop(6/42=6)

holoCaM-CaMKII.loop2.water2.frame57 

   -2  1 
C        -10.80486       72.94740       78.67246
C        -12.28666       72.88764       78.92968
O        -13.01115       72.35409       78.10404
H        -10.26634       73.44523       79.50762
H        -10.40148       71.91685       78.57254
H        -10.60126       73.51015       77.73875
N        -12.80251       73.39538       80.08256
C        -14.21049       73.29982       80.45949
C        -15.12922       74.06849       79.51803
O        -14.92837       75.25595       79.31005
C        -14.37741       73.77060       81.92178
C        -15.78605       73.76863       82.48022
O        -16.22617       74.80330       82.95453
O        -16.55577       72.65616       82.52585
H        -12.14377       73.81625       80.75635
H        -14.46663       72.23447       80.42823
H        -13.97168       74.80243       82.00922
H        -13.75899       73.10694       82.56351
N        -16.20125       73.43245       78.95854
C        -17.17746       74.04209       78.06553
C        -18.59098       74.05536       78.65698
O        -19.47755       74.58015       77.99691
C        -17.20361       73.23038       76.75991
H        -16.34773       72.44819       79.18668
H        -16.88920       75.09053       77.84012
H        -17.51744       72.18122       76.96774
H        -17.91953       73.66646       76.03126
H        -16.19618       73.20385       76.29480
N        -18.89881       73.45967       79.84970
C        -20.27708       73.26159       80.30576
C        -20.45579       73.34439       81.83128
O        -21.57720       73.16293       82.28582
C        -20.79377       71.92015       79.73190
C        -19.81463       70.78927       79.89747
O        -19.38846       70.19898       78.91755
O        -19.36201       70.45396       81.11098
H        -18.16314       72.93870       80.34283
H        -20.94304       74.05443       79.89857
H        -20.96217       72.04939       78.64022
H        -21.77330       71.65933       80.18733
N        -19.43494       73.65188       82.68187
C        -19.58308       73.79811       84.12872
C        -19.94931       72.53511       84.90460
O        -20.11686       72.64609       86.11094
H        -18.52261       73.88108       82.28610
H        -20.35427       74.57350       84.32529
H        -18.62128       74.16813       84.54795
N        -20.11055       71.31692       84.31174
C        -20.56258       70.11648       85.02551
C        -19.53571       69.50253       85.99413
O        -19.84349       68.47331       86.57991
C        -21.08022       69.06670       84.01211
C        -20.05103       68.46660       83.09178
N        -20.44119       67.57211       82.15843
O        -18.87440       68.78226       83.16866
H        -19.99556       71.25636       83.29629
H        -21.46450       70.39272       85.61624
H        -21.86087       69.55195       83.38440
H        -21.56511       68.23448       84.56587
H        -21.43139       67.30448       82.06361
H        -19.75271       67.14969       81.52624
N        -18.32631       70.08098       86.24979
C        -17.36336       69.56717       87.21972
C        -16.52936       68.37647       86.76071
O        -15.66740       67.96887       87.52537
H        -18.10755       70.98563       85.82068
H        -17.88120       69.33945       88.17784
H        -16.63137       70.37661       87.42950
N        -16.70035       67.77469       85.54831
C        -15.89182       66.64938       85.06549
C        -15.27246       66.96277       83.69933
O        -15.49883       68.03986       83.16916
C        -16.78582       65.38369       84.99426
C        -17.22806       64.95002       86.39509
O        -17.92620       65.61517       84.20669
H        -17.45427       68.10462       84.94017
H        -15.04922       66.43277       85.75858
H        -16.21686       64.52014       84.58436
H        -17.62557       65.65150       83.26191
H        -16.33797       64.73215       87.02516
H        -17.83213       65.74001       86.88833
H        -17.84029       64.02604       86.32934
N        -14.51068       66.02743       83.05008
C        -13.97731       66.20823       81.69965
C        -14.84312       65.40896       80.73677
O        -15.11604       64.24559       80.99535
C        -12.47788       65.77572       81.58429
C        -11.58220       66.56218       82.57525
C        -11.98354       65.97814       80.13191
C        -10.09558       66.18389       82.49357
H        -14.37065       65.10768       83.49226
H        -14.02626       67.27700       81.40577
H        -12.39816       64.69225       81.82586
H        -11.92588       66.34786       83.60935
H        -11.67588       67.65481       82.39341
H        -10.95067       65.60684       79.98727
H        -12.59514       65.39331       79.42227
H        -12.02674       67.05168       79.84902
H         -9.52611       66.72656       83.27592
H         -9.95931       65.09179       82.64324
H         -9.65353       66.47664       81.51841
N        -15.25134       65.97348       79.56342
C        -16.06061       65.29218       78.55874
C        -15.19027       64.91009       77.37772
O        -14.01191       65.21627       77.38233
C        -17.20461       66.21335       78.09248
C        -18.09777       66.63619       79.21908
O        -19.28372       66.35004       79.19578
O        -17.60464       67.36508       80.23986
H        -14.91661       66.91445       79.33330
H        -16.48038       64.35035       78.97452
H        -17.81457       65.68767       77.32708
H        -16.78279       67.12830       77.62430
N        -15.69411       64.17965       76.34317
C        -14.84630       63.70766       75.25500
C        -14.27642       64.86057       74.42470
O        -13.05854       64.90167       74.30126
C        -15.57826       62.66289       74.38440
C        -14.63058       61.97436       73.43469
C        -14.75232       62.15141       72.04719
C        -13.61901       61.13446       73.93537
C        -13.87246       61.50118       71.17635
C        -12.74762       60.48101       73.06155
C        -12.87319       60.66485       71.68275
H        -16.68215       63.88961       76.37232
H        -14.00108       63.15717       75.72615
H        -16.40931       63.11724       73.82677
H        -16.02847       61.88085       75.03341
H        -15.52119       62.79663       71.64073
H        -13.51199       60.97559       75.00154
H        -13.96677       61.64415       70.10818
H        -11.97711       59.83029       73.45475
H        -12.19691       60.15785       71.00741
N        -15.04201       65.84327       73.83848
C        -14.49247       66.96558       73.07718
C        -13.37342       67.67783       73.80468
O        -12.35315       67.99479       73.21203
C        -15.68037       67.93633       72.95399
C        -16.84729       66.99111       72.88624
C        -16.48458       65.97864       73.96700
H        -14.16733       66.61041       72.07383
H        -15.81778       68.51149       73.89995
H        -15.59657       68.66574       72.12017
H        -17.84717       67.45925       73.00991
H        -16.80578       66.48314       71.89565
H        -16.71473       66.35678       74.98723
H        -17.06604       65.07048       73.75780
N        -13.53535       67.95319       75.12394
C        -12.59545       68.70249       75.93865
C        -11.24627       68.01160       75.97831
O        -10.25177       68.61466       75.59936
C        -13.14018       68.83214       77.37427
C        -14.53802       69.47934       77.45692
C        -15.00567       69.56352       78.87463
O        -16.16483       70.16551       79.14862
O        -14.28704       69.21909       79.79748
H        -14.39368       67.59864       75.56293
H        -12.48404       69.72624       75.51412
H        -12.42176       69.43867       77.97090
H        -13.21404       67.82437       77.83131
H        -15.30742       68.91162       76.90321
H        -14.50050       70.50280       77.02682
N        -11.14426       66.73404       76.43423
C         -9.89120       66.02300       76.51691
H         -9.19997       66.55395       77.20422
H        -10.07078       65.00069       76.91552
H         -9.43651       65.93759       75.50845
H        -11.98973       66.23987       76.73540
Ca       -16.14340       70.86792       81.26666
O        -16.11762       70.62504       84.28756
H        -16.19324       71.51502       84.71333
H        -15.38957       70.18161       84.78692
O        -13.51928       70.09371       82.53400
H        -12.93926       70.19362       81.73880
H        -13.14450       70.72736       83.19446

Ca 1.0



