%chk=holoCaM-CaMKII.loop3.water2.frame144.chk
%nprocshared=20
%mem=10GB
%nosave
#b3lyp/svp scf=(tight,noincore,xqc) Test 
#IOP(5/87=12) Density=Current Pop=(MK,readradii) iop(6/33=2) iop(6/42=6)

holoCaM-CaMKII.loop3.water2.frame144 

   0  1 
C          5.38576       12.98852       81.35547
C          6.07521       13.15074       82.67609
O          5.58060       12.62368       83.66114
H          4.36386       13.41911       81.41911
H          5.93791       13.50778       80.54458
H          5.31271       11.90984       81.10490
N          7.21349       13.89445       82.77813
C          7.91030       14.12914       84.03366
C          7.69318       15.56517       84.42809
O          8.61374       16.37012       84.44736
C          9.38087       13.68451       83.91996
C         10.18615       13.90743       85.17499
O         11.22222       14.54574       85.09811
O          9.80422       13.41486       86.37709
H          7.58369       14.35745       81.93401
H          7.45281       13.53987       84.83589
H          9.86857       14.21085       83.07085
H          9.40520       12.60438       83.70359
N          6.42983       15.93151       84.77288
C          6.05078       17.26611       85.20225
C          6.74262       17.58506       86.51891
O          7.45996       18.57396       86.57977
C          4.50936       17.38212       85.31789
C          3.81353       17.04706       83.97595
C          2.28961       17.20279       84.05082
C          1.57430       16.65604       82.79759
N          1.97417       17.33735       81.56492
H          5.70480       15.20014       84.74239
H          6.36350       17.99938       84.42435
H          4.25268       18.42411       85.60977
H          4.13022       16.69276       86.10353
H          4.02174       15.99525       83.69523
H          4.21510       17.70833       83.17898
H          2.03139       18.27228       84.20827
H          1.91036       16.61932       84.91790
H          0.47807       16.77931       82.94046
H          1.78084       15.56648       82.69742
H          1.40628       16.95894       80.77220
H          1.80170       18.36502       81.64554
H          2.98056       17.15493       81.35126
N          6.60840       16.76113       87.60593
C          7.29110       17.00871       88.88203
C          8.82190       17.00017       88.77602
O          9.46969       17.42600       89.72235
C          6.83392       16.02992       89.98665
C          7.23926       14.60332       89.72940
O          6.79388       13.99345       88.77241
O          8.08591       13.98475       90.57371
H          5.98144       15.94842       87.51931
H          6.98436       18.02825       89.20706
H          5.73004       16.08194       90.10623
H          7.28898       16.35460       90.94824
N          9.46536       16.58668       87.64781
C         10.88244       16.80166       87.41045
C         11.85628       15.91060       88.15559
O         13.04363       16.13023       87.95708
H          8.91657       16.22225       86.86361
H         11.11592       17.86748       87.62310
H         11.08023       16.65424       86.33040
N         11.49333       14.90295       89.00710
C         12.51614       14.12805       89.72001
C         13.42555       13.29131       88.80639
O         14.43542       12.81067       89.30207
C         11.92683       13.24117       90.84498
C         11.00721       12.12863       90.40076
N         10.58862       11.20801       91.29920
O         10.63961       12.04492       89.24115
H         10.49528       14.72831       89.19395
H         13.16701       14.87102       90.23483
H         11.37985       13.87416       91.57649
H         12.78324       12.77611       91.38128
H         10.89636       11.25427       92.28158
H          9.97409       10.43365       91.00969
N         13.13399       13.04839       87.49265
C         13.99276       12.27212       86.59861
C         13.37893       10.94436       86.17382
O         14.02037       10.22193       85.42454
H         12.25766       13.41005       87.10260
H         14.96096       12.03085       87.08849
H         14.21820       12.88859       85.70295
N         12.18487       10.52326       86.67325
C         11.61179        9.19528       86.48090
C         10.15520        9.30109       86.08621
O          9.42774        9.98490       86.79134
C         11.64193        8.48134       87.84968
C         13.04215        8.19941       88.32032
C         13.78001        7.15569       87.74049
C         13.61380        8.95795       89.35459
C         15.06809        6.86560       88.19805
C         14.90837        8.67722       89.79913
C         15.63772        7.62458       89.22611
O         16.88151        7.33242       89.65587
H         11.68501       11.13772       87.32185
H         12.17662        8.58429       85.74211
H         11.08421        7.51877       87.82105
H         11.12252        9.13053       88.59076
H         13.34845        6.55398       86.94974
H         13.06259        9.77190       89.80958
H         15.62160        6.04687       87.75574
H         15.34048        9.27473       90.59168
H         17.30962        7.82999       90.36701
N          9.62480        8.56092       85.06575
C          8.17539        8.46261       84.87174
C          7.69282        7.07767       85.25522
O          8.49097        6.15810       85.38271
C          7.69812        8.86838       83.44849
C          8.22927        7.91851       82.34515
C          8.07868       10.32552       83.17746
C          7.64104        8.21365       80.96160
H         10.24696        7.96308       84.50073
H          7.66218        9.14744       85.58268
H          6.58600        8.80814       83.44486
H          7.94174        6.87582       82.59782
H          9.33716        7.97123       82.28732
H          7.68334       10.97028       83.99006
H          9.18272       10.42550       83.12895
H          7.64058       10.69245       82.22830
H          7.94208        9.21521       80.59400
H          8.01560        7.46473       80.23287
H          6.53186        8.15185       80.99309
N          6.37569        6.89349       85.53331
C          5.79524        5.63511       85.97274
C          4.60332        5.27280       85.10113
O          4.26944        6.01500       84.18672
C          5.38036        5.78105       87.44944
O          4.43043        6.80009       87.59626
H          5.75468        7.71116       85.49021
H          6.54015        4.81162       85.91398
H          6.28881        6.03149       88.04337
H          4.96260        4.82495       87.83126
H          4.26689        6.89032       88.57081
N          3.89113        4.14111       85.35628
C          2.67251        3.77867       84.64044
C          1.61755        4.85615       84.80786
O          1.01807        5.25760       83.82143
C          2.12888        2.44685       85.16565
H          4.21253        3.52516       86.11895
H          2.89549        3.63758       83.55869
H          2.88727        1.64833       85.01887
H          1.88367        2.51550       86.24689
H          1.21244        2.16324       84.60466
N          1.36312        5.38766       86.03776
C          0.39024        6.44950       86.27284
C          0.71047        7.69436       85.46180
O         -0.14247        8.14427       84.70907
C          0.35400        6.81015       87.76529
H          1.90120        5.02762       86.84167
H         -0.62173        6.08086       85.99291
H          1.34391        7.17761       88.11272
H         -0.40365        7.60112       87.95187
H          0.08250        5.91653       88.36616
N          1.92062        8.31288       85.57769
C          2.25494        9.55468       84.87798
C          2.30983        9.38738       83.35944
O          2.44252       10.39150       82.67225
C          3.62308       10.09399       85.34527
C          3.70091       10.39896       86.85263
C          5.10770       10.78338       87.20833
O          5.75269       10.11076       87.99619
O          5.67731       11.84425       86.61333
H          2.60992        7.89365       86.21486
H          1.47551       10.30923       85.12557
H          3.85750       11.02947       84.79334
H          4.39186        9.34479       85.07869
H          3.42181        9.51089       87.45466
H          3.00388       11.22550       87.10803
N          2.24705        8.16621       82.75919
C          2.30772        8.00102       81.32402
H          1.45686        8.52940       80.84485
H          3.26737        8.40227       80.93507
H          2.24486        6.92141       81.06682
H          2.17378        7.31696       83.32558
Ca         7.88449       12.27968       86.74920
O          8.28142        9.21701       89.31461
H          7.86956        8.90218       90.15747
H          8.59113        8.39089       88.86572
O          6.65096       11.32691       90.99004
H          5.76893       11.63158       90.65910
H          6.82684       11.89044       91.78490

Ca 1.0



