%chk=holoCaM.loop4.water3.frame230.chk
%nprocshared=20
%mem=10GB
%nosave
#b3lyp/svp scf=(tight,noincore,xqc) Test 
#IOP(5/87=12) Density=Current Pop=(MK,readradii) iop(6/33=2) iop(6/42=6)

holoCaM.loop4.water3.frame230 

   -3  1 
C         36.01377       63.33064       23.68673
C         34.81012       64.19922       23.50114
O         34.98775       65.32024       23.05250
H         36.74323       63.82964       24.35896
H         35.74024       62.34168       24.10316
H         36.49160       63.18099       22.69303
N         33.54646       63.74860       23.77971
C         32.37275       64.50139       23.35755
C         31.09752       64.15943       24.11781
O         30.81018       62.98108       24.27039
C         32.09280       64.16335       21.88004
C         31.12335       65.12640       21.27724
O         30.63091       64.89281       20.19480
O         31.13109       66.37586       21.80679
H         33.43159       62.76919       24.07583
H         32.59558       65.58207       23.45755
H         31.73739       63.11266       21.78347
H         33.01648       64.27124       21.27636
N         30.20557       65.14269       24.46578
C         28.84946       64.85420       24.94424
C         27.73495       65.45086       24.05680
O         26.59239       65.07373       24.27972
C         28.64011       65.33339       26.41245
C         28.69775       66.88049       26.53316
C         29.64393       64.65187       27.35689
C         28.30051       67.40447       27.91139
H         30.47747       66.12197       24.33415
H         28.69195       63.75363       24.93260
H         27.62111       65.00177       26.71493
H         27.98362       67.33306       25.81513
H         29.71271       67.24747       26.28990
H         30.67894       64.99413       27.14890
H         29.40070       64.87371       28.41581
H         29.59977       63.54947       27.23432
H         28.29953       68.51510       27.89276
H         27.27845       67.05533       28.17130
H         29.01743       67.07810       28.69039
N         27.94867       66.45263       23.14089
C         26.85224       67.18373       22.48073
C         26.97557       67.29995       20.95517
O         26.08736       67.88996       20.35439
C         26.69521       68.58770       23.12953
C         27.86879       69.51186       23.00739
O         28.87482       69.16127       22.44087
O         27.81667       70.74707       23.53558
H         28.90240       66.80145       23.00534
H         25.88588       66.66708       22.67045
H         26.49682       68.45606       24.21213
H         25.82338       69.10307       22.67598
N         28.00289       66.74572       20.25107
C         28.08534       66.78876       18.79391
C         28.45939       68.14037       18.20111
O         28.42958       68.24623       16.98324
H         28.70189       66.19775       20.75566
H         27.10986       66.45376       18.37540
H         28.84533       66.06193       18.44335
N         28.81037       69.21781       18.96492
C         29.04648       70.53803       18.38644
C         30.24693       70.63778       17.43601
O         30.22947       71.50889       16.57827
C         29.08553       71.65123       19.45425
C         30.26746       71.69615       20.38754
O         31.16211       70.70067       20.52924
O         30.46986       72.73736       20.99469
H         28.82099       69.12100       19.98396
H         28.14085       70.76507       17.77965
H         28.15799       71.63908       20.06584
H         29.09576       72.60942       18.88994
N         31.33943       69.83243       17.56031
C         32.50483       69.87698       16.67768
C         33.78093       70.31664       17.39018
O         34.84247       70.22579       16.79298
H         31.35471       69.15739       18.32892
H         32.34838       70.55518       15.81117
H         32.65162       68.85188       16.27177
N         33.74603       70.83542       18.64979
C         34.89671       71.28245       19.42556
C         34.97729       70.54338       20.74024
O         34.00456       70.52339       21.48194
C         34.78785       72.78519       19.76267
C         35.16979       73.65843       18.56618
C         35.31702       75.10701       18.96118
N         34.25398       75.83949       19.36324
O         36.42178       75.62832       18.91182
H         32.83907       70.95340       19.08794
H         35.84815       71.11455       18.87837
H         35.53469       73.00921       20.55865
H         33.77968       73.03499       20.16900
H         34.43947       73.54689       17.73858
H         36.16391       73.30883       18.20912
H         33.31092       75.42848       19.40106
H         34.37704       76.83008       19.62353
N         36.15648       69.97488       21.12750
C         36.32490       69.38258       22.44529
C         36.30540       70.49069       23.48495
O         37.22661       71.29388       23.53491
C         37.62697       68.54073       22.54744
C         37.73051       67.85608       23.92190
C         37.67286       67.45682       21.45621
H         36.95911       70.00485       20.48282
H         35.48413       68.68715       22.61638
H         38.50745       69.20806       22.41347
H         38.67720       67.28078       23.99216
H         37.73016       68.60044       24.74199
H         36.87943       67.15827       24.07710
H         37.66452       67.90011       20.44026
H         38.60578       66.86217       21.54599
H         36.80291       66.77363       21.54656
N         35.24830       70.60423       24.32848
C         35.15206       71.60520       25.38350
C         36.05911       71.21162       26.54516
O         36.64634       70.14281       26.51613
C         33.65038       71.70099       25.78324
C         33.26136       72.68108       26.85977
N         33.57928       73.99169       26.77082
O         32.60839       72.28729       27.81366
H         34.46069       69.95957       24.19341
H         35.45951       72.59396       24.97903
H         33.28451       70.69286       26.07961
H         33.10000       72.00853       24.87217
H         34.11880       74.35316       25.97271
H         33.29384       74.64391       27.51678
N         36.20572       72.03383       27.61657
C         36.86685       71.65302       28.86525
C         36.11495       70.48629       29.50213
O         36.74631       69.53205       29.93231
C         36.84028       72.86408       29.82022
C         37.27678       72.52749       31.22441
C         38.62776       72.33952       31.56274
C         36.29335       72.39435       32.21721
C         38.98142       72.03954       32.88609
C         36.64521       72.07853       33.52623
C         37.99165       71.90645       33.86947
O         38.34122       71.61391       35.13797
H         35.77026       72.96369       27.56456
H         37.92957       71.36778       28.69237
H         35.79032       73.22570       29.86079
H         37.45005       73.70345       29.41791
H         39.40390       72.44055       30.81367
H         35.24600       72.51961       31.97114
H         40.02390       71.91087       33.14992
H         35.86680       71.97043       34.27033
H         37.68124       71.51772       35.84027
N         34.75091       70.50460       29.58103
C         33.94587       69.43851       30.18177
C         34.13036       68.09114       29.47537
O         33.66596       67.08042       29.98445
C         32.44204       69.82884       30.10677
C         31.54302       69.07271       31.09742
C         31.84371       69.50519       32.50587
O         31.68990       70.67253       32.83226
O         32.28770       68.61532       33.41191
H         34.27273       71.33047       29.20709
H         34.27793       69.36542       31.24006
H         32.08615       69.66679       29.06302
H         32.31037       70.91122       30.32215
H         31.65817       67.97635       30.98956
H         30.47934       69.31497       30.88541
N         34.76724       68.01576       28.27297
C         34.92027       66.80917       27.47941
C         36.38623       66.40218       27.36831
O         36.64972       65.27055       26.99566
C         34.37064       67.10089       26.06634
C         32.89403       67.54007       26.08719
C         32.39149       68.01505       24.75137
O         31.13360       68.47713       24.64626
O         33.10615       68.01134       23.76486
H         35.11596       68.87629       27.84734
H         34.36765       65.96408       27.94962
H         34.48938       66.21530       25.41379
H         34.97779       67.93185       25.63841
H         32.76485       68.39139       26.78594
H         32.26747       66.69465       26.43582
N         37.39574       67.28104       27.64368
C         38.79333       66.93984       27.52146
H         39.41258       67.83196       27.76589
H         39.04733       66.12543       28.22895
H         39.02171       66.63056       26.48082
H         37.18955       68.23983       27.92456
Ca        30.97107       68.54340       21.19812
O         31.71232       66.97126       19.06291
H         31.09393       66.56040       18.41313
H         32.59722       66.92729       18.63095
O         33.81821       67.09366       20.84926
H         34.50719       66.61645       20.32554
H         34.21163       67.17825       21.74581
O         31.30423       70.88115       23.38775
H         30.40889       71.26923       23.54746
H         31.81658       71.60458       22.94984

Ca 1.0



