%chk=holoCaM-CaMKII.loop3.water1.frame415.chk
%nprocshared=20
%mem=10GB
%nosave
#b3lyp/svp scf=(tight,noincore,xqc) Test 
#IOP(5/87=12) Density=Current Pop=(MK,readradii) iop(6/33=2) iop(6/42=6)

holoCaM-CaMKII.loop3.water1.frame415 

   0  1 
C         38.61301       49.33557       38.51042
C         37.94155       48.24950       39.29195
O         38.53079       47.78276       40.25544
H         39.57447       48.95829       38.10395
H         37.97712       49.68352       37.67076
H         38.81573       50.19529       39.18378
N         36.71307       47.78063       38.92579
C         36.00077       46.75321       39.67081
C         35.98635       45.48304       38.84035
O         35.47085       45.48158       37.73134
C         34.60549       47.27952       40.06200
C         33.90485       46.40891       41.06714
O         33.60386       46.90284       42.28062
O         33.59494       45.26418       40.79852
H         36.26654       48.15830       38.07589
H         36.53976       46.54506       40.61576
H         33.97100       47.41608       39.15984
H         34.74029       48.27494       40.53995
N         36.62530       44.37633       39.31233
C         36.85515       43.15140       38.54604
C         35.56774       42.43317       38.13746
O         35.63824       41.52363       37.32344
C         37.75533       42.23420       39.41466
C         38.35449       40.99800       38.73729
C         39.25676       40.26199       39.74434
C         39.94435       39.04481       39.11864
N         40.78558       38.36244       40.10329
H         37.05106       44.44552       40.24756
H         37.40714       43.44707       37.62708
H         37.17331       41.91953       40.30981
H         38.61910       42.84707       39.76072
H         38.96025       41.32349       37.86384
H         37.55492       40.31015       38.39393
H         38.64247       39.93022       40.61094
H         40.04224       40.95736       40.11690
H         40.57561       39.37714       38.26469
H         39.17591       38.33678       38.73802
H         40.20121       38.02087       40.90098
H         41.25016       37.54301       39.64993
H         41.52278       39.01220       40.46259
N         34.36981       42.74196       38.70903
C         33.14378       41.97437       38.49917
C         31.87925       42.85625       38.43268
O         30.79715       42.30418       38.28979
C         33.07491       40.89633       39.60093
C         33.24488       41.50183       40.96168
O         32.36602       42.41871       41.37431
O         34.19693       41.20584       41.66599
H         34.37264       43.41817       39.47890
H         33.18416       41.42522       37.53185
H         33.90705       40.17601       39.43605
H         32.12081       40.33022       39.53502
N         31.93885       44.22132       38.44945
C         30.80162       45.10263       38.20690
C         29.77877       45.29035       39.32014
O         28.90711       46.12293       39.10779
H         32.85622       44.68168       38.48807
H         30.28670       44.79266       37.27129
H         31.21305       46.12041       38.02533
N         29.78019       44.61868       40.51155
C         28.79342       44.93081       41.55512
C         28.95248       46.35724       42.07988
O         27.93926       47.02714       42.22702
C         28.68088       43.87081       42.67433
C         29.96272       43.47395       43.39027
N         29.73517       42.40775       44.35893
O         30.65195       44.53434       43.96910
H         30.47745       43.88330       40.67750
H         27.77938       44.87919       41.09320
H         28.30143       42.93569       42.20665
H         27.92253       44.20479       43.41669
H         29.06486       42.73197       45.08920
H         30.64454       42.17053       44.81753
N         30.18190       46.92733       42.26287
C         30.36098       48.34862       42.55382
C         31.26644       48.66960       43.73074
O         31.53601       49.84801       43.91627
H         31.02281       46.36405       42.07325
H         29.38957       48.86599       42.70966
H         30.83496       48.80188       41.65692
N         31.78397       47.71651       44.55824
C         32.72884       48.01291       45.63653
C         34.00261       47.21577       45.45521
O         33.91862       46.03932       45.12536
C         32.15097       47.74080       47.03846
C         31.76672       46.30889       47.31471
C         32.61924       45.47793       48.06344
C         30.53847       45.80465       46.86500
C         32.25166       44.15980       48.34533
C         30.16520       44.49270       47.16507
C         31.01941       43.66310       47.89851
O         30.64564       42.39652       48.17015
H         31.51829       46.73706       44.41196
H         32.99307       49.09335       45.64711
H         31.28243       48.40146       47.24701
H         32.94240       48.04128       47.76203
H         33.57276       45.84686       48.42157
H         29.86086       46.43293       46.30044
H         32.92276       43.52834       48.91413
H         29.20642       44.12545       46.83077
H         31.20898       41.79076       48.67280
N         35.21959       47.77316       45.73194
C         36.46741       47.02654       45.60858
C         37.11204       46.77184       46.95567
O         36.75385       47.38939       47.94970
C         37.42819       47.69103       44.57313
C         37.84322       49.16267       44.85301
C         36.76104       47.64315       43.19583
C         38.75932       49.36189       46.05754
H         35.25799       48.74743       46.06603
H         36.24257       46.00608       45.22806
H         38.35628       47.08447       44.50016
H         36.94932       49.81482       44.94455
H         38.42600       49.52640       43.97725
H         37.44769       48.04689       42.42982
H         36.52324       46.59642       42.93001
H         35.82714       48.24268       43.17677
H         39.05753       50.43087       46.10985
H         38.25600       49.11816       47.00757
H         39.67771       48.74672       45.94597
N         38.03093       45.77362       47.05082
C         38.72873       45.38125       48.26740
C         40.22297       45.30748       47.97884
O         40.63407       45.66815       46.88706
C         38.17421       44.01906       48.72718
O         38.38375       43.03889       47.74775
H         38.21770       45.21155       46.20568
H         38.54653       46.10305       49.09395
H         37.08238       44.13448       48.91669
H         38.65612       43.70643       49.67873
H         37.93508       42.21886       48.08212
N         41.09870       44.79953       48.88768
C         42.51358       44.58932       48.58692
C         42.68794       43.69414       47.36652
O         43.46411       44.03795       46.48644
C         43.22015       43.95268       49.78734
H         40.74076       44.50359       49.80824
H         43.00767       45.56830       48.39456
H         44.29945       43.81152       49.56202
H         43.13395       44.61816       50.67245
H         42.77257       42.96598       50.03314
N         41.96314       42.54563       47.23820
C         42.09225       41.62015       46.11405
C         41.91201       42.30547       44.77056
O         42.80048       42.21324       43.93475
C         41.05852       40.48977       46.24513
H         41.28006       42.32305       47.97919
H         43.10569       41.16248       46.14342
H         41.20241       39.94471       47.20140
H         40.02281       40.89504       46.22854
H         41.16591       39.76720       45.40791
N         40.77266       42.99122       44.48910
C         40.50191       43.60891       43.19150
C         41.54078       44.67305       42.88209
O         42.20379       44.57223       41.85871
C         39.06546       44.17850       43.16579
C         38.03179       43.04029       43.30607
C         36.62460       43.54501       43.40869
O         35.90534       43.28423       44.51467
O         36.11327       44.16485       42.49329
H         40.06566       43.06088       45.23600
H         40.55400       42.83245       42.39405
H         38.88287       44.70946       42.20510
H         38.94872       44.90467       43.99442
H         38.23075       42.44797       44.22113
H         38.11654       42.35281       42.43912
N         41.76747       45.70097       43.74172
C         42.79096       46.69722       43.50936
H         43.78458       46.20724       43.41615
H         42.56786       47.26519       42.58241
H         42.83076       47.40536       44.36483
H         41.21487       45.76410       44.60248
Ca        32.57364       43.70758       43.18840
O         33.41441       42.40990       45.64689
H         33.77258       43.20624       46.11370
H         32.97349       41.87962       46.35574

Ca 1.0



