%chk=holoCaM-CaMKII.loop2.water2.frame390.chk
%nprocshared=20
%mem=10GB
%nosave
#b3lyp/svp scf=(tight,noincore,xqc) Test 
#IOP(5/87=12) Density=Current Pop=(MK,readradii) iop(6/33=2) iop(6/42=6)

holoCaM-CaMKII.loop2.water2.frame390 

   -2  1 
C         37.88167       84.94748       65.87093
C         37.09718       83.76618       65.35124
O         37.69278       82.76683       64.98421
H         38.57868       85.32384       65.09495
H         37.21201       85.78484       66.16794
H         38.46320       84.65057       66.77020
N         35.73847       83.81331       65.33245
C         34.85270       82.71087       64.94897
C         34.89575       82.37145       63.46701
O         34.78825       83.27447       62.64922
C         33.41005       83.12376       65.29335
C         32.35462       82.10021       64.97362
O         32.32201       80.89656       65.58150
O         31.46126       82.39447       64.19591
H         35.30133       84.68001       65.68378
H         35.10797       81.82380       65.55630
H         33.17498       84.05724       64.73448
H         33.34469       83.34868       66.37689
N         34.92485       81.06411       63.06134
C         34.79415       80.64569       61.66736
C         33.64002       79.65791       61.41706
O         33.41618       79.35469       60.25294
C         36.10915       80.00328       61.21669
H         35.02206       80.33457       63.77544
H         34.61351       81.53347       61.02392
H         36.32381       79.09292       61.81784
H         36.05951       79.72040       60.14307
H         36.94508       80.72265       61.34703
N         32.91729       79.05993       62.41912
C         31.92966       77.99620       62.16749
C         30.57400       78.19328       62.85940
O         29.69118       77.37610       62.63442
C         32.54423       76.64159       62.58088
C         33.04729       76.64900       63.99753
O         32.20903       76.92348       65.00833
O         34.22591       76.43541       64.23329
H         33.15180       79.26897       63.39796
H         31.70415       77.92575       61.08103
H         33.39819       76.41920       61.90477
H         31.79716       75.82746       62.45518
N         30.32823       79.22210       63.71305
C         29.05651       79.43648       64.38868
C         28.65407       78.28542       65.29094
O         27.57725       77.74084       65.09259
H         31.06591       79.90427       63.88186
H         28.26445       79.61409       63.62825
H         29.13223       80.35258       65.01510
N         29.45350       77.88190       66.32149
C         29.08211       76.82663       67.26934
C         28.99628       77.34659       68.70848
O         28.85261       76.54144       69.61839
C         30.02743       75.60880       67.13997
C         31.46961       75.80839       67.53122
N         32.31725       74.75680       67.47661
O         31.88503       76.89828       67.89043
H         30.35996       78.35534       66.44579
H         28.07507       76.42202       67.02666
H         29.99741       75.24948       66.08764
H         29.62600       74.79461       67.78193
H         31.98831       73.82891       67.17243
H         33.30276       74.86564       67.74313
N         29.00435       78.68382       68.98415
C         28.86024       79.24822       70.32006
C         30.08415       79.13413       71.21655
O         30.01853       79.65908       72.31961
H         29.01328       79.35315       68.20442
H         27.96990       78.80511       70.81737
H         28.67042       80.33761       70.20764
N         31.22534       78.48961       70.84008
C         32.42290       78.39245       71.67766
C         33.65909       78.89878       70.94299
O         33.57500       79.25346       69.77504
C         32.62653       76.91536       72.11587
C         31.55989       76.49358       73.12694
O         32.58097       76.04786       71.01067
H         31.25161       78.02265       69.92767
H         32.32614       79.01791       72.59253
H         33.59367       76.78502       72.64974
H         33.41496       76.18894       70.49249
H         31.62130       77.14165       74.02889
H         30.54130       76.57043       72.69445
H         31.73824       75.44460       73.44588
N         34.86770       78.90087       71.57765
C         36.13442       79.21078       70.92688
C         36.86283       77.89707       70.73841
O         37.03736       77.16792       71.70728
C         37.00962       80.19414       71.76970
C         36.27206       81.52736       72.04351
C         38.35318       80.45156       71.04775
C         37.08848       82.50772       72.89763
H         34.91192       78.57034       72.55408
H         35.96501       79.67385       69.92983
H         37.23167       79.71643       72.75051
H         35.33408       81.30677       72.59587
H         36.00739       82.02524       71.08640
H         39.04012       81.07186       71.65482
H         38.89778       79.50506       70.88134
H         38.18339       80.94751       70.06840
H         36.48024       83.40803       73.12091
H         37.39018       82.03287       73.85562
H         37.99555       82.85778       72.36298
N         37.36233       77.55608       69.51936
C         38.12020       76.33537       69.28282
C         39.59680       76.66157       69.27055
O         39.94774       77.82288       69.39980
C         37.66932       75.67228       67.96878
C         36.20422       75.34188       67.98321
O         35.37264       76.23119       68.07794
O         35.80181       74.06195       67.87014
H         37.28193       78.23043       68.74616
H         37.96558       75.61914       70.12041
H         38.24489       74.73533       67.81382
H         37.87186       76.35132       67.11142
N         40.53528       75.68110       69.20054
C         41.95632       75.96638       69.35371
C         42.49719       76.89372       68.26445
O         43.10021       77.88940       68.63749
C         42.78036       74.66979       69.49078
C         44.22307       74.96826       69.82549
C         44.55486       75.64969       71.01267
C         45.25063       74.57024       68.95526
C         45.88810       75.93329       71.31547
C         46.58433       74.85379       69.26460
C         46.90255       75.53595       70.44227
H         40.22448       74.70015       69.12112
H         42.06944       76.49212       70.32794
H         42.71460       74.06302       68.57063
H         42.35649       74.05522       70.31464
H         43.78549       75.96391       71.70648
H         45.02048       74.04429       68.03717
H         46.13330       76.46116       72.22822
H         47.37162       74.54545       68.58988
H         47.93492       75.75601       70.67938
N         42.32266       76.68089       66.91890
C         42.79230       77.60214       65.88246
C         42.39385       79.04072       66.15589
O         43.19569       79.95163       66.00843
C         42.05017       77.12098       64.62094
C         41.94352       75.63785       64.86313
C         41.55843       75.59372       66.33677
H         43.89239       77.49509       65.76039
H         40.99996       77.49659       64.61681
H         42.52321       77.42425       63.66277
H         41.24709       75.09415       64.18929
H         42.96461       75.20816       64.75356
H         40.47534       75.80298       66.48621
H         41.81141       74.59206       66.72145
N         41.12388       79.28244       66.56147
C         40.52479       80.58974       66.78050
C         41.24485       81.34290       67.88342
O         41.61377       82.48956       67.67073
C         39.01802       80.39905       67.07359
C         38.34469       79.69923       65.86573
C         36.89160       79.42886       66.02573
O         36.30445       78.86062       65.12050
O         36.20318       79.80413       67.11485
H         40.53972       78.45114       66.72352
H         40.58597       81.19206       65.84567
H         38.53772       81.38762       67.24332
H         38.88727       79.78544       67.98798
H         38.79467       78.71346       65.65017
H         38.48020       80.32739       64.95995
N         41.52984       80.74520       69.07132
C         42.26000       81.41594       70.12404
H         43.24492       81.76241       69.74292
H         41.67680       82.28251       70.49816
H         42.43974       80.71244       70.96548
H         41.25997       79.76859       69.22256
Ca        34.02801       79.88714       66.62455
O         31.42230       80.19168       68.09637
H         31.78656       80.88990       68.69320
H         30.76528       80.67170       67.53309
O         34.32087       81.93642       68.74871
H         34.29658       82.90009       68.52911
H         35.26910       81.68193       68.62849

Ca 1.0



