%chk=holoCaM-CaMKII.loop4.water2.frame12.chk
%nprocshared=20
%mem=10GB
%nosave
#b3lyp/svp scf=(tight,noincore,xqc) Test 
#IOP(5/87=12) Density=Current Pop=(MK,readradii) iop(6/33=2) iop(6/42=6)

holoCaM-CaMKII.loop4.water2.frame12 

   -3  1 
C         50.85255       53.57572       35.24088
C         49.96198       52.75931       36.12593
O         49.20599       53.31967       36.90692
H         51.91345       53.31367       35.43675
H         50.61436       53.35659       34.17822
H         50.70596       54.66034       35.42569
N         49.99212       51.40387       36.03828
C         49.13114       50.54012       36.83078
C         49.43401       50.68062       38.32268
O         50.59755       50.67523       38.69950
C         49.28577       49.08139       36.37294
C         48.22201       48.26376       37.02209
O         48.52866       47.39523       37.81259
O         46.92168       48.52941       36.79067
H         50.63365       50.97485       35.35176
H         48.07554       50.82842       36.62911
H         50.30082       48.70585       36.63521
H         49.15101       48.99418       35.27300
N         48.41628       50.76794       39.22778
C         48.60429       50.99332       40.66224
C         48.51137       49.69979       41.47493
O         49.15183       49.64014       42.51592
C         47.57300       52.06264       41.17928
C         47.75633       53.40724       40.42316
C         47.66420       52.26782       42.70697
C         46.80050       54.52264       40.86796
H         47.45573       50.67563       38.87533
H         49.62703       51.39382       40.84405
H         46.54643       51.68768       40.97882
H         47.58213       53.23264       39.34024
H         48.79606       53.77562       40.55397
H         48.66219       52.65571       42.99625
H         46.87868       52.96349       43.06488
H         47.46062       51.32241       43.24915
H         45.74416       54.20077       40.78984
H         46.99865       54.83663       41.91229
H         46.95252       55.41716       40.22878
N         47.68065       48.67370       41.13405
C         47.39450       47.54532       42.03104
C         47.79498       46.17392       41.47712
O         47.39964       45.18527       42.08117
C         45.90171       47.59463       42.45120
C         44.99743       47.66079       41.26168
O         44.27882       48.63230       41.09433
O         45.11164       46.74663       40.29026
H         47.16457       48.73178       40.24479
H         47.95821       47.63100       42.98544
H         45.73697       48.50987       43.06321
H         45.64752       46.72031       43.08709
N         48.65760       46.01567       40.42914
C         49.26157       44.71958       40.12231
C         48.60250       43.91590       39.01350
O         49.03543       42.78672       38.82928
H         49.09950       46.85645       40.03732
H         49.27766       44.09067       41.04064
H         50.33065       44.86901       39.85752
N         47.59043       44.39169       38.22585
C         46.94499       43.57850       37.18693
C         47.22591       44.05206       35.75370
O         46.69221       43.44228       34.83699
C         45.43447       43.44223       37.47593
C         44.68619       44.73894       37.49466
O         44.68123       45.46341       36.51655
O         43.96782       45.08149       38.57874
H         47.25531       45.35367       38.36712
H         47.33685       42.53809       37.21126
H         45.30085       42.94396       38.46082
H         44.97375       42.78987       36.70400
N         48.11252       45.04901       35.46490
C         48.51758       45.38437       34.10023
C         47.48116       46.10026       33.24329
O         47.79710       46.37584       32.09367
H         48.61848       45.50786       36.23146
H         48.84602       44.45315       33.58821
H         49.39935       46.05953       34.15256
N         46.26057       46.47304       33.71781
C         45.27398       47.23760       32.95269
C         45.03428       48.56998       33.63870
O         44.88416       48.59770       34.85299
C         43.94604       46.47164       32.82203
C         44.05980       45.25089       31.89041
C         42.72636       44.57663       31.64944
N         42.64153       43.53524       30.78979
O         41.71518       44.97319       32.21189
H         46.02451       46.24552       34.68959
H         45.62517       47.44764       31.91699
H         43.20518       47.16206       32.35855
H         43.57060       46.17086       33.82396
H         44.77630       44.51252       32.30920
H         44.44093       45.59477       30.90327
H         43.47671       43.19218       30.29336
H         41.73475       43.07833       30.60948
N         44.95495       49.72008       32.90794
C         44.85080       51.05160       33.49722
C         43.44674       51.62833       33.32282
O         43.01175       51.89027       32.21002
C         45.97498       51.95042       32.90200
C         45.78606       53.44664       33.18559
C         47.33899       51.50514       33.45529
H         44.98203       49.65310       31.87791
H         45.02631       50.99339       34.59153
H         45.97187       51.84013       31.79467
H         45.77086       53.64496       34.27097
H         46.61544       54.02813       32.72975
H         44.84598       53.81517       32.72548
H         47.52958       50.43221       33.24518
H         48.15945       52.10296       33.00625
H         47.36226       51.65877       34.55542
N         42.69613       51.85750       34.44169
C         41.37285       52.48366       34.49404
C         41.51949       53.99207       34.22851
O         42.63648       54.44829       34.06327
C         40.81201       52.21656       35.92694
C         39.33827       52.39865       36.19577
N         38.87400       52.20757       37.45309
O         38.55302       52.66583       35.30205
H         43.09740       51.55874       35.33773
H         40.71599       51.98094       33.75236
H         41.39317       52.83010       36.64627
H         40.99357       51.14698       36.17583
H         39.51944       51.95741       38.21779
H         37.87138       52.31061       37.66723
N         40.44863       54.83731       34.19436
C         40.57425       56.29007       34.05568
C         41.28326       56.87012       35.27210
O         42.28361       57.55797       35.11539
C         39.16881       56.91930       33.91644
C         39.20252       58.39328       33.58592
C         39.75704       58.83209       32.37073
C         38.64991       59.33843       34.46653
C         39.75269       60.18978       32.03949
C         38.64888       60.69746       34.13381
C         39.19687       61.12660       32.91588
O         39.18962       62.43118       32.57500
H         39.50735       54.44801       34.26760
H         41.14486       56.51253       33.12759
H         38.59310       56.73875       34.85042
H         38.62284       56.41305       33.09152
H         40.17962       58.12234       31.67091
H         38.21469       59.02550       35.40732
H         40.17429       60.51230       31.09559
H         38.21571       61.41477       34.81947
H         38.80230       63.11057       33.14512
N         40.82147       56.58710       36.52490
C         41.44324       57.04199       37.76768
C         42.93074       56.74045       37.80244
O         43.70344       57.63586       38.11389
C         40.72469       56.45155       39.01698
C         40.64822       54.91072       39.08014
C         39.97159       54.44858       40.33782
O         38.93234       53.81043       40.28150
O         40.52772       54.70916       41.53618
H         39.98956       55.98368       36.59031
H         41.33567       58.14801       37.84331
H         39.68450       56.84399       39.03832
H         41.24513       56.82631       39.92693
H         41.65504       54.45721       39.07440
H         40.07904       54.53046       38.20904
N         43.40500       55.50925       37.47212
C         44.82111       55.16564       37.52117
C         45.61164       56.06495       36.58318
O         46.54739       56.71391       37.03126
C         45.04166       53.66107       37.22237
C         44.29726       52.77395       38.24544
C         44.62636       51.31524       38.13108
O         45.06811       50.64849       39.21012
O         44.44421       50.70856       37.09197
H         42.72896       54.80005       37.16130
H         45.19416       55.33167       38.55440
H         46.13233       53.45332       37.28873
H         44.68964       53.40687       36.20257
H         43.20498       52.88269       38.12056
H         44.55161       53.09489       39.27277
N         45.24892       56.20370       35.28057
C         45.92277       57.10461       34.37088
H         46.98103       56.79770       34.24170
H         45.41951       57.08576       33.37979
H         45.87847       58.14411       34.76248
H         44.44060       55.68145       34.92997
Ca        45.48603       47.66613       38.27793
O         42.14736       47.42098       35.98980
H         41.49021       47.17173       35.29326
H         42.44533       46.55462       36.36152
O         42.38798       48.85507       38.68583
H         42.11712       48.13873       39.31344
H         41.80072       49.61994       38.91051

Ca 1.0



