%chk=holoCaM-CaMKII.loop4.water2.frame123.chk
%nprocshared=20
%mem=10GB
%nosave
#b3lyp/svp scf=(tight,noincore,xqc) Test 
#IOP(5/87=12) Density=Current Pop=(MK,readradii) iop(6/33=2) iop(6/42=6)

holoCaM-CaMKII.loop4.water2.frame123 

   -3  1 
C         35.78115       39.60891       74.68689
C         36.06485       38.52503       75.67795
O         36.71961       38.80142       76.67326
H         35.21798       40.42139       75.19438
H         36.73684       40.01476       74.29720
H         35.17165       39.23261       73.83963
N         35.57092       37.26695       75.49928
C         35.75099       36.23580       76.50541
C         37.21889       35.83418       76.60433
O         37.75872       35.35744       75.61497
C         34.86664       34.99561       76.20397
C         34.74378       34.12607       77.42294
O         34.05958       33.12194       77.40936
O         35.26328       34.58928       78.56775
H         34.99155       37.06700       74.66948
H         35.38644       36.68008       77.45756
H         35.26477       34.42641       75.33687
H         33.83364       35.32980       75.96279
N         37.92868       35.99883       77.76114
C         39.35209       35.68601       77.86013
C         39.54696       34.23897       78.29039
O         40.07434       33.46896       77.49842
C         40.09096       36.68933       78.80230
C         39.89372       38.17333       78.38777
C         41.59118       36.35338       78.92343
C         40.46280       38.55267       77.01658
H         37.45501       36.39428       78.58422
H         39.81280       35.78945       76.85237
H         39.65413       36.59664       79.82060
H         40.37800       38.82182       79.15074
H         38.81120       38.41750       78.39704
H         41.73539       35.33542       79.34174
H         42.09535       36.39069       77.93572
H         42.09100       37.06800       79.61166
H         40.27175       39.63038       76.82924
H         41.56027       38.39562       76.98031
H         39.97725       37.97402       76.20535
N         39.20377       33.80142       79.54096
C         39.51078       32.44086       79.99159
C         38.63772       31.36627       79.33325
O         38.88757       30.19282       79.57081
C         39.53780       32.34934       81.53741
C         38.22137       32.49559       82.24118
O         38.18904       32.47771       83.58711
O         37.18151       32.59961       81.61900
H         38.81457       34.47876       80.21356
H         40.56610       32.23514       79.70030
H         40.22522       33.13997       81.91252
H         39.96303       31.36697       81.83575
N         37.64401       31.68224       78.45056
C         36.92179       30.69361       77.66537
C         35.94259       29.85366       78.45210
O         36.04734       28.63593       78.42332
H         37.44401       32.66854       78.23666
H         37.65225       30.05229       77.12448
H         36.32208       31.22681       76.89608
N         34.90686       30.44783       79.10751
C         33.79605       29.72037       79.72280
C         32.45428       30.13525       79.09926
O         31.41362       29.85786       79.67937
C         33.81954       29.89955       81.25686
C         33.62348       31.30100       81.76334
O         33.63867       31.52593       83.09026
O         33.44302       32.23352       81.00053
H         34.88095       31.47643       79.12898
H         33.90046       28.62425       79.56217
H         34.79658       29.52750       81.63391
H         33.02273       29.26356       81.70096
N         32.40658       30.73425       77.87278
C         31.18194       31.10932       77.17939
C         30.51060       32.38749       77.66249
O         29.54118       32.77164       77.02195
H         33.27979       30.83942       77.33994
H         30.46698       30.25780       77.18151
H         31.44989       31.30700       76.11808
N         30.93659       33.10972       78.74254
C         30.30946       34.37078       79.16024
C         31.33351       35.49054       79.28143
O         32.51850       35.23316       79.12241
C         29.56860       34.17212       80.49583
C         28.38633       33.20529       80.32626
C         27.57477       33.09517       81.58982
N         27.38399       31.89773       82.18963
O         27.06390       34.09795       82.06696
H         31.72019       32.75378       79.30383
H         29.56674       34.70871       78.40426
H         29.16079       35.14902       80.83241
H         30.27084       33.79995       81.27516
H         28.76000       32.20539       80.01704
H         27.71570       33.58833       79.52650
H         27.79277       31.03722       81.79762
H         26.81413       31.82942       83.04580
N         30.93846       36.77571       79.54861
C         31.87478       37.89156       79.67474
C         31.73579       38.50963       81.05968
O         30.69075       39.07120       81.36250
C         31.62732       38.96195       78.57269
C         32.71936       40.04707       78.60700
C         31.58562       38.33792       77.16955
H         29.93180       36.97801       79.65243
H         32.91041       37.51728       79.54332
H         30.63843       39.44231       78.74734
H         33.71660       39.60002       78.40113
H         32.51802       40.82366       77.83884
H         32.75311       40.55072       79.59435
H         31.39365       39.12638       76.40976
H         32.54404       37.83055       76.93016
H         30.75722       37.60194       77.09572
N         32.74837       38.41620       81.96510
C         32.67366       38.96690       83.31962
C         32.88297       40.48260       83.28706
O         33.20411       41.01651       82.23549
C         33.72407       38.21446       84.18778
C         33.66252       38.42512       85.68420
N         33.21063       37.44185       86.49864
O         34.06187       39.46614       86.17696
H         33.57986       37.86955       81.69966
H         31.67121       38.72470       83.73802
H         34.75649       38.40781       83.82660
H         33.52852       37.13794       84.01794
H         32.87655       36.54481       86.11745
H         33.18356       37.58181       87.51951
N         32.73448       41.24104       84.41060
C         33.07506       42.66205       84.48268
C         34.53510       42.88501       84.12143
O         34.80443       43.73245       83.28318
C         32.81498       43.20759       85.90734
C         33.32566       44.62598       86.06783
C         32.81783       45.67567       85.28248
C         34.35176       44.89690       86.99026
C         33.33666       46.96904       85.41254
C         34.86705       46.18860       87.11858
C         34.36357       47.22942       86.32684
O         34.86101       48.47821       86.43299
H         32.38342       40.78431       85.26220
H         32.43943       43.23699       83.77240
H         33.33528       42.54844       86.63699
H         31.72789       43.16606       86.13426
H         32.03125       45.49267       84.56179
H         34.76505       44.10537       87.60300
H         32.94563       47.76884       84.79623
H         35.66284       46.37636       87.82850
H         35.57830       48.69536       87.04592
N         35.53218       42.18787       84.73562
C         36.94480       42.40688       84.43353
C         37.27341       42.17555       82.96413
O         38.26609       42.71379       82.49419
C         37.85069       41.53732       85.33755
C         37.71403       40.02456       85.06582
C         38.54071       39.22039       86.02625
O         39.75186       39.36582       86.07149
O         37.94737       38.32109       86.83488
H         35.27261       41.50141       85.45540
H         37.15558       43.47476       84.66535
H         37.58689       41.74747       86.39775
H         38.91200       41.83275       85.18412
H         38.04995       39.79245       84.03322
H         36.65542       39.70917       85.16585
N         36.51761       41.34169       82.19496
C         36.81746       41.06490       80.79434
C         36.26557       42.15258       79.88511
O         36.77370       42.31386       78.78432
C         36.23802       39.70242       80.38605
C         36.82873       38.55308       81.23216
C         36.20660       37.23205       80.89758
O         36.55176       36.11598       81.56768
O         35.36813       37.15043       80.01471
H         35.74022       40.83350       82.63977
H         37.92115       41.00100       80.66168
H         36.45798       39.51028       79.31267
H         35.13359       39.73080       80.51970
H         36.63919       38.73623       82.30733
H         37.92624       38.49113       81.06830
N         35.19805       42.91120       80.25992
C         34.64887       43.96316       79.43424
H         33.78750       44.43687       79.95484
H         35.41878       44.74223       79.25227
H         34.29413       43.54714       78.46857
H         34.74215       42.73417       81.15921
Ca        35.39365       34.36974       80.76584
O         32.81729       34.94897       83.01902
H         32.77813       34.05540       82.60186
H         32.64006       34.77900       83.97812
O         36.08208       34.79324       84.05952
H         37.02513       35.06149       83.91895
H         35.69846       35.52075       84.61023

Ca 1.0



