%chk=holoCaM-CaMKII.loop2.water1.frame59.chk
%nprocshared=20
%mem=10GB
%nosave
#b3lyp/svp scf=(tight,noincore,xqc) Test 
#IOP(5/87=12) Density=Current Pop=(MK,readradii) iop(6/33=2) iop(6/42=6)

holoCaM-CaMKII.loop2.water1.frame59 

   -2  1 
C        -12.86747       67.67116       83.38755
C        -14.14883       67.68552       84.17125
O        -15.16537       67.22036       83.67881
H        -12.10419       67.08365       83.94318
H        -13.01182       67.20395       82.39062
H        -12.49335       68.70742       83.25374
N        -14.15441       68.18964       85.43303
C        -15.31535       68.15645       86.31468
C        -16.47111       69.00510       85.80381
O        -16.28127       70.19051       85.56902
C        -14.91145       68.65003       87.71576
C        -16.05545       68.52944       88.67595
O        -16.55023       69.62714       89.27640
O        -16.55183       67.43719       88.89771
H        -13.26419       68.56094       85.80210
H        -15.63649       67.09955       86.42485
H        -14.57566       69.70902       87.66102
H        -14.06899       68.03518       88.10002
N        -17.72257       68.46596       85.70009
C        -18.91213       69.23382       85.34508
C        -19.95504       69.25770       86.46728
O        -20.97265       69.91068       86.28007
C        -19.53233       68.62955       84.08169
H        -17.84686       67.46643       85.91251
H        -18.64076       70.28975       85.12889
H        -20.42362       69.21276       83.76509
H        -18.79447       68.64056       83.25226
H        -19.84345       67.57831       84.26936
N        -19.79932       68.56575       87.63791
C        -20.81249       68.51408       88.69182
C        -20.26975       69.02036       90.03161
O        -20.86532       69.94397       90.56992
C        -21.46723       67.11052       88.73681
C        -20.53434       65.93082       88.65800
O        -20.60782       65.16411       87.71067
O        -19.64060       65.68508       89.62198
H        -18.95245       68.00211       87.78338
H        -21.66626       69.18913       88.45325
H        -22.12252       67.04050       87.83927
H        -22.12702       67.02787       89.62762
N        -19.14749       68.51013       90.61789
C        -18.59114       69.00928       91.87555
C        -18.38976       67.93102       92.92857
O        -17.86473       68.25147       93.98554
H        -18.62648       67.77430       90.13239
H        -19.22308       69.81125       92.31441
H        -17.59585       69.44932       91.65987
N        -18.77813       66.64006       92.72727
C        -18.61706       65.56869       93.71102
C        -17.16343       65.15183       93.98373
O        -16.97563       64.25700       94.79716
C        -19.48227       64.35089       93.30216
C        -19.13304       63.69126       91.99153
N        -19.89350       62.66468       91.55091
O        -18.18982       64.07796       91.31870
H        -19.27855       66.41846       91.86200
H        -19.04937       65.92136       94.67372
H        -20.53595       64.69899       93.22465
H        -19.44029       63.58113       94.10203
H        -20.69743       62.33108       92.10089
H        -19.69324       62.20709       90.65548
N        -16.08683       65.75821       93.39787
C        -14.70690       65.41919       93.73307
C        -14.20201       64.11376       93.13719
O        -13.05558       63.77865       93.39801
H        -16.22871       66.54636       92.75436
H        -14.59143       65.41133       94.83995
H        -14.04005       66.21640       93.34023
N        -14.96883       63.34069       92.31663
C        -14.51357       62.09840       91.69536
C        -14.66185       62.17488       90.18861
O        -15.73667       62.51181       89.71426
C        -15.32791       60.88837       92.21069
C        -15.06328       60.60138       93.69312
O        -16.70464       61.03542       91.95721
H        -15.92726       63.64079       92.11250
H        -13.44812       61.88806       91.93835
H        -14.98048       59.98634       91.65799
H        -17.07156       61.67913       92.61686
H        -13.97975       60.41307       93.85401
H        -15.37843       61.45627       94.32661
H        -15.62484       59.69412       94.00044
N        -13.64042       61.79203       89.36889
C        -13.79346       61.70840       87.91722
C        -14.88520       60.68540       87.61162
O        -14.74540       59.54393       88.02752
C        -12.46411       61.27122       87.20272
C        -11.27882       62.22185       87.53035
C        -12.68628       61.20796       85.67254
C         -9.94488       61.76597       86.92398
H        -12.75682       61.49030       89.80255
H        -14.06879       62.71204       87.52465
H        -12.19290       60.25223       87.55987
H        -11.11553       62.25623       88.62495
H        -11.50483       63.25347       87.18529
H        -11.79385       60.82981       85.13774
H        -13.49610       60.50024       85.41854
H        -12.94839       62.21170       85.27277
H         -9.95887       61.80434       85.81650
H         -9.13214       62.44156       87.26298
H         -9.70337       60.73204       87.25262
N        -15.96251       61.01124       86.83904
C        -16.93942       60.01970       86.38869
C        -16.65170       59.67503       84.93865
O        -15.74885       60.25048       84.36489
C        -18.38883       60.50124       86.60861
C        -18.73002       60.54279       88.07653
O        -19.45021       59.67847       88.54924
O        -18.29192       61.53101       88.87820
H        -16.02525       61.96072       86.44996
H        -16.80854       59.06189       86.93732
H        -19.06206       59.75078       86.14292
H        -18.59374       61.47635       86.11269
N        -17.31790       58.66354       84.30820
C        -16.93943       58.21052       82.97206
C        -17.12707       59.28059       81.89792
O        -16.16637       59.50789       81.16952
C        -17.65532       56.89746       82.58603
C        -16.99415       56.26294       81.37795
C        -17.69155       56.10306       80.16956
C        -15.65722       55.82111       81.45816
C        -17.05899       55.52330       79.06242
C        -15.03146       55.24325       80.35166
C        -15.73087       55.09577       79.15335
H        -18.04789       58.15013       84.82103
H        -15.85862       57.95759       83.03120
H        -18.73235       57.09009       82.41063
H        -17.57825       56.16660       83.42025
H        -18.71865       56.43210       80.08080
H        -15.09489       55.92025       82.37828
H        -17.59725       55.40596       78.13135
H        -14.00351       54.91017       80.42500
H        -15.24274       54.64869       78.29678
N        -18.28067       60.00775       81.71837
C        -18.45167       61.01080       80.67034
C        -17.59871       62.26761       80.86823
O        -17.66879       63.15041       80.02773
C        -19.95570       61.29907       80.69231
C        -20.28259       61.13799       82.15792
C        -19.48609       59.88698       82.52168
H        -18.19853       60.59008       79.67115
H        -20.26859       62.25482       80.22042
H        -20.47624       60.46654       80.16440
H        -19.83806       62.00902       82.69248
H        -21.36345       61.08076       82.40748
H        -19.30942       59.91914       83.61252
H        -20.02021       58.95850       82.23035
N        -16.72288       62.38290       81.90574
C        -15.73507       63.44541       82.03085
C        -14.41173       62.91859       81.50914
O        -13.82854       63.54111       80.63223
C        -15.58080       63.85400       83.50344
C        -16.86910       64.43699       84.09874
C        -16.72657       64.66590       85.57446
O        -17.81088       64.96704       86.29764
O        -15.67779       64.43086       86.15583
H        -16.66074       61.62690       82.58880
H        -16.02038       64.34403       81.43988
H        -14.76523       64.60208       83.60341
H        -15.29312       62.95333       84.09121
H        -17.68838       63.69686       83.96896
H        -17.15997       65.37933       83.58841
N        -13.89387       61.74950       81.97873
C        -12.66000       61.18198       81.48976
H        -11.81444       61.86085       81.72168
H        -12.47923       60.20172       81.98303
H        -12.72786       61.01516       80.39396
H        -14.40210       61.21830       82.69234
Ca       -17.91941       63.56818       88.02649
O        -14.80129       65.84357       90.47348
H        -14.66121       66.78469       90.74868
H        -14.25462       65.73783       89.65560

Ca 1.0



