%chk=holoCaM.loop1.water2.frame58.chk
%nprocshared=20
%mem=10GB
%nosave
#b3lyp/svp scf=(tight,noincore,xqc) Test 
#IOP(5/87=12) Density=Current Pop=(MK,readradii) iop(6/33=2) iop(6/42=6)

holoCaM.loop1.water2.frame58 

   0  1 
C         63.80004       16.54389       29.84982
C         63.55433       17.68055       30.78966
O         64.44705       17.99970       31.56297
H         64.81259       16.11533       30.01970
H         63.04559       15.74829       30.01831
H         63.73755       16.90897       28.80491
N         62.35114       18.32912       30.79855
C         62.07521       19.43068       31.70735
C         61.05004       18.98870       32.74496
O         59.88680       18.80310       32.41431
C         61.59518       20.68281       30.93574
C         61.50529       21.88220       31.84156
O         60.99768       22.91578       31.45111
O         62.03300       21.80756       33.07596
H         61.60309       18.00825       30.16466
H         63.01583       19.70249       32.23344
H         60.59802       20.46494       30.49206
H         62.29359       20.93156       30.10764
N         61.45211       18.74519       34.02445
C         60.57824       18.23680       35.07771
C         59.60341       19.26997       35.65758
O         58.79726       18.86227       36.48192
C         61.41279       17.45692       36.13966
C         62.48745       18.20628       36.95911
C         61.92987       19.07289       38.09634
C         63.04210       19.70139       38.96525
N         63.77132       20.76184       38.27079
H         62.46088       18.78172       34.20197
H         59.94595       17.44289       34.61873
H         61.96044       16.67763       35.56239
H         60.73856       16.91573       36.83790
H         63.14947       18.77371       36.29409
H         63.12266       17.43033       37.44031
H         61.33799       18.40067       38.75513
H         61.26059       19.86689       37.71359
H         63.75479       18.91611       39.30286
H         62.57118       20.14285       39.87025
H         64.25180       20.39400       37.42532
H         63.11334       21.52226       38.00507
H         64.49249       21.16677       38.90962
N         59.56205       20.58477       35.25977
C         58.54250       21.53448       35.73737
C         57.65851       22.05585       34.60407
O         56.72551       22.79203       34.90129
C         59.17579       22.80257       36.34948
C         60.21329       22.59594       37.39781
O         59.92609       22.14116       38.49277
O         61.47531       22.97297       37.12497
H         60.24653       20.91934       34.57179
H         57.89268       21.04688       36.49568
H         58.38802       23.46671       36.76878
H         59.65497       23.36750       35.53084
N         57.92320       21.80854       33.28574
C         57.18128       22.44662       32.20786
C         57.41695       23.95400       32.09945
O         56.77065       24.56608       31.26160
H         58.67960       21.16756       33.01490
H         56.09693       22.24294       32.35159
H         57.48546       21.99907       31.23783
N         58.29909       24.62926       32.90049
C         58.44963       26.08639       32.87023
C         59.07477       26.63541       31.58585
O         59.03670       27.84627       31.41054
C         59.22690       26.59121       34.11468
C         60.64934       26.10718       34.23629
O         61.39237       26.49968       35.28777
O         61.13660       25.35598       33.41049
H         58.83021       24.10779       33.60392
H         57.42575       26.51453       32.95483
H         58.68338       26.26388       35.02737
H         59.24039       27.70234       34.10739
N         59.68399       25.83630       30.66161
C         60.23656       26.32509       29.40500
C         61.74812       26.19295       29.28850
O         62.25350       26.47856       28.21478
H         59.74784       24.82843       30.83610
H         59.99436       27.39771       29.24016
H         59.75909       25.75039       28.58307
N         62.54226       25.85098       30.34832
C         64.00752       25.83211       30.27890
C         64.60026       24.56607       30.87841
O         63.90016       23.78678       31.50247
C         64.58992       27.07088       31.01060
C         64.41364       28.35885       30.19908
O         64.04014       27.21003       32.29808
H         62.10544       25.68456       31.25852
H         64.34534       25.85473       29.22031
H         65.68956       26.95409       31.12336
H         63.12414       27.58576       32.20803
H         64.86440       29.20971       30.75311
H         64.94245       28.25883       29.22671
H         63.34259       28.57530       30.01009
N         65.93247       24.31181       30.68613
C         66.64164       23.16306       31.23571
C         67.84283       23.68141       32.02478
O         68.77110       24.21241       31.43357
C         67.05624       22.20150       30.07507
C         65.77699       21.62716       29.40310
C         67.96582       21.06087       30.56525
C         66.04455       20.73499       28.18973
H         66.47473       24.96175       30.09868
H         65.97979       22.59462       31.92523
H         67.63523       22.78798       29.32743
H         65.14071       22.46526       29.04976
H         65.19288       21.04244       30.14923
H         67.41636       20.41061       31.26661
H         68.32571       20.44186       29.71933
H         68.87656       21.45539       31.05694
H         66.60874       21.29700       27.41646
H         66.60386       19.81957       28.46930
H         65.07510       20.40780       27.75760
N         67.86548       23.57512       33.38389
C         68.98216       23.99676       34.22722
C         70.17398       23.06886       34.04176
O         70.09837       22.11624       33.27897
C         68.57184       23.97031       35.73818
C         67.46171       24.97288       36.08181
O         68.23610       22.66683       36.15220
H         67.03701       23.19347       33.83926
H         69.26891       25.04035       33.97257
H         69.42807       24.29421       36.36321
H         67.26085       22.53900       36.04084
H         67.25661       24.93687       37.17352
H         67.77616       26.00314       35.81467
H         66.52815       24.72281       35.54739
N         71.29429       23.25461       34.79085
C         72.35591       22.26058       34.90510
C         71.78353       20.97255       35.49063
O         72.09986       19.90189       34.99501
C         73.50324       22.77743       35.81041
C         74.21292       23.98405       35.18236
O         73.00743       23.12197       37.07982
H         71.35194       24.09867       35.37856
H         72.79809       22.04513       33.90567
H         74.24993       21.95402       35.90847
H         73.78181       23.13442       37.70050
H         74.63164       23.70678       34.19148
H         73.51956       24.84028       35.05078
H         75.04955       24.30990       35.83546
N         70.92941       21.01371       36.55673
C         70.35571       19.82113       37.18574
C         69.36462       19.07283       36.28843
O         68.95797       17.98302       36.66767
C         69.63821       20.19123       38.50367
C         70.57937       20.87473       39.51007
C         69.84873       21.21335       40.81122
C         70.78633       21.95102       41.77577
N         70.10921       22.25617       43.03423
H         70.69936       21.93848       36.94474
H         71.19569       19.13431       37.43373
H         69.23929       19.26424       38.97267
H         68.78193       20.86589       38.27959
H         70.97726       21.81944       39.08712
H         71.43592       20.20121       39.73144
H         69.48522       20.27453       41.28302
H         68.97480       21.86498       40.58838
H         71.12796       22.90003       41.30362
H         71.68007       21.32182       41.98377
H         69.27071       22.85563       42.85687
H         69.81786       21.36946       43.50607
H         70.76944       22.77207       43.65960
N         68.92682       19.58484       35.10210
C         68.01834       18.89457       34.18856
C         68.71997       18.54089       32.87898
O         68.10147       17.87782       32.05779
C         66.79548       19.79437       33.89556
C         65.91737       20.03567       35.12681
C         64.82514       21.03170       34.83192
O         65.08866       22.17218       34.50273
O         63.54137       20.69066       34.97557
H         69.25172       20.51213       34.81751
H         67.67376       17.93159       34.62545
H         66.15599       19.33235       33.11261
H         67.17064       20.76746       33.51354
H         66.52496       20.42251       35.96657
H         65.47171       19.06825       35.44417
N         70.00000       18.93388       32.60960
C         70.71368       18.60258       31.39514
H         71.64473       18.05807       31.66103
H         70.11634       17.96837       30.70950
H         70.99025       19.53955       30.86726
H         70.51664       19.50559       33.28036
Ca        62.00239       23.09108       34.92593
O         64.08975       24.37682       37.43818
H         63.35206       24.54041       38.07754
H         64.75200       25.08201       37.64590
O         64.28311       25.57548       34.60047
H         65.07417       25.66080       34.01072
H         64.37856       26.31742       35.24948

Ca 1.0



