%chk=holoCaM-CaMKII.loop3.water2.frame141.chk
%nprocshared=20
%mem=10GB
%nosave
#b3lyp/svp scf=(tight,noincore,xqc) Test 
#IOP(5/87=12) Density=Current Pop=(MK,readradii) iop(6/33=2) iop(6/42=6)

holoCaM-CaMKII.loop3.water2.frame141 

   0  1 
C         24.90501       16.48739       79.45259
C         26.04125       16.29646       80.40905
O         25.83724       15.71652       81.46538
H         24.10968       17.08049       79.95277
H         25.22953       17.04251       78.54638
H         24.50067       15.50259       79.14712
N         27.26234       16.82036       80.12535
C         28.36034       16.82974       81.07152
C         28.36372       18.20762       81.68943
O         28.58992       19.18484       80.98864
C         29.67533       16.45415       80.35301
C         30.89765       16.80016       81.15168
O         31.70716       17.56698       80.66883
O         31.13490       16.26159       82.36047
H         27.37595       17.36651       79.25663
H         28.19615       16.09326       81.88931
H         29.74175       17.02056       79.39842
H         29.66904       15.37478       80.09999
N         28.08161       18.34721       83.01638
C         28.02225       19.63169       83.69548
C         29.25850       19.82527       84.56207
O         29.37685       20.87180       85.18348
C         26.72654       19.73470       84.53484
C         25.45085       19.47226       83.71214
C         24.18915       19.65108       84.57532
C         22.89320       19.21697       83.86463
N         22.63420       19.97331       82.63894
H         27.92651       17.50114       83.58791
H         28.02145       20.45959       82.95259
H         26.67245       20.75192       84.98194
H         26.76544       18.99133       85.36210
H         25.47880       18.42928       83.32831
H         25.41448       20.17371       82.85192
H         24.10671       20.71380       84.89336
H         24.28110       19.02375       85.48907
H         22.04479       19.36910       84.56933
H         22.94411       18.13151       83.62551
H         23.36334       19.76629       81.91988
H         21.70784       19.67992       82.25200
H         22.60704       20.99830       82.84272
N         30.24860       18.88173       84.60431
C         31.50767       19.04193       85.31651
C         32.68818       19.10596       84.34146
O         33.81667       19.22503       84.79681
C         31.66201       17.93770       86.38739
C         31.73176       16.52771       85.86528
O         30.78815       16.02829       85.27400
O         32.82119       15.78165       86.12163
H         30.14486       18.01479       84.06489
H         31.51530       20.00629       85.86835
H         30.80729       18.00277       87.09512
H         32.59023       18.14184       86.96308
N         32.49879       19.11613       82.98671
C         33.55856       19.32801       82.00995
C         34.58160       18.21309       81.86101
O         35.46163       18.39275       81.02994
H         31.54259       19.08421       82.61035
H         34.08438       20.27423       82.25656
H         33.09748       19.48450       81.01126
N         34.59443       17.07433       82.62050
C         35.73833       16.15816       82.57085
C         35.79253       15.27718       81.32690
O         36.85657       14.73563       81.05996
C         35.87379       15.34054       83.87003
C         34.87432       14.21766       84.00526
N         35.29873       12.95558       84.25036
O         33.67863       14.44371       83.91122
H         33.87784       16.94589       83.34705
H         36.64209       16.81055       82.56182
H         35.76898       16.03798       84.72940
H         36.90007       14.91465       83.91741
H         36.30197       12.74400       84.35571
H         34.62246       12.18736       84.36026
N         34.69890       15.06002       80.53708
C         34.75295       14.29306       79.29818
C         33.93723       13.01521       79.31152
O         33.86147       12.39767       78.25850
H         33.79114       15.46989       80.80132
H         35.79414       14.00706       79.03408
H         34.37644       14.94765       78.48289
N         33.33420       12.52275       80.43677
C         32.55653       11.27783       80.43808
C         31.10777       11.58159       80.88644
O         30.77738       12.82866       80.40945
C         33.22444       10.23454       81.36290
C         34.61768        9.87146       80.89017
C         34.86640        8.59363       80.36155
C         35.67977       10.79465       80.96369
C         36.13901        8.25559       79.89212
C         36.95012       10.45468       80.49317
C         37.18252        9.18453       79.94957
O         38.40053        8.84650       79.48087
H         33.42994       13.03170       81.32802
H         32.50220       10.85485       79.41117
H         32.59325        9.32200       81.36507
H         33.27477       10.60175       82.41085
H         34.07163        7.86118       80.29729
H         35.53619       11.78025       81.38422
H         36.31144        7.27119       79.47645
H         37.75141       11.18117       80.54968
H         39.14538        9.46449       79.49177
N         30.10118       10.60245       80.42920
C         28.82389       10.75566       81.18639
C         28.25515        9.41413       81.66508
O         28.69566        8.35645       81.23559
C         27.70445       11.52928       80.39094
C         27.42964       10.85680       79.02128
C         27.97982       13.03211       80.22671
C         26.30171       11.51133       78.21772
H         30.51694        9.66361       80.60738
H         29.03961       11.29835       82.12625
H         26.77752       11.48987       81.00456
H         27.15180        9.79514       79.18921
H         28.35356       10.88178       78.40307
H         28.24958       13.48806       81.20338
H         28.75190       13.22151       79.46020
H         27.06929       13.55969       79.87743
H         26.55757       12.55440       77.93690
H         26.14854       10.94805       77.27355
H         25.35604       11.50550       78.79880
N         27.27569        9.41392       82.61507
C         26.67752        8.21611       83.19109
C         25.16374        8.26375       83.06042
O         24.63734        9.22331       82.51973
C         27.07855        8.12416       84.67742
O         26.52562        9.17492       85.42698
H         26.95957       10.31877       82.98695
H         27.05649        7.30418       82.68120
H         28.18822        8.10814       84.77880
H         26.72292        7.16906       85.11573
H         27.15550        9.93829       85.37250
N         24.39442        7.26262       83.56867
C         22.93475        7.30116       83.59599
C         22.43528        8.44940       84.46099
O         21.56432        9.18536       84.02104
C         22.38423        5.98271       84.14663
H         24.87037        6.44536       83.98078
H         22.53784        7.40521       82.56062
H         22.71590        5.14138       83.50110
H         22.73883        5.80298       85.18355
H         21.27289        6.00456       84.14265
N         22.96577        8.66678       85.70142
C         22.53632        9.73717       86.60350
C         22.55849       11.09017       85.91596
O         21.53624       11.76201       85.90598
C         23.42827        9.76365       87.85183
H         23.73127        8.04728       86.00995
H         21.49502        9.53143       86.93823
H         24.48745        9.95919       87.57794
H         23.08767       10.55582       88.55238
H         23.37422        8.78661       88.37816
N         23.67374       11.52261       85.26579
C         23.72634       12.75799       84.48254
C         22.60411       12.78304       83.45671
O         21.82226       13.72446       83.46932
C         25.11661       12.89363       83.81790
C         26.15722       13.33492       84.86547
C         27.56168       13.31354       84.34561
O         28.17349       12.13708       84.14263
O         28.18741       14.35041       84.19652
H         24.50150       10.90758       85.27934
H         23.57136       13.63970       85.14501
H         25.09797       13.67332       83.02666
H         25.38114       11.93090       83.33188
H         26.12887       12.68766       85.76684
H         25.89556       14.37166       85.17181
N         22.42108       11.76386       82.57853
C         21.30615       11.73408       81.65676
H         20.34888       11.77809       82.22142
H         21.36418       12.59492       80.95896
H         21.32182       10.78991       81.07204
H         23.06447       10.96745       82.59124
Ca        31.03131       14.07513       82.24646
O         30.52797       13.35210       86.93273
H         31.28263       13.19834       87.55515
H         30.02187       14.10140       87.33616
O         31.95278       11.50129       84.75243
H         32.61908       10.78634       84.91212
H         31.10568       11.13207       85.10733

Ca 1.0



