%chk=holoCaM.loop4.water3.frame373.chk
%nprocshared=20
%mem=10GB
%nosave
#b3lyp/svp scf=(tight,noincore,xqc) Test 
#IOP(5/87=12) Density=Current Pop=(MK,readradii) iop(6/33=2) iop(6/42=6)

holoCaM.loop4.water3.frame373 

   -3  1 
C         10.85302       -5.99345       45.83861
C         10.76996       -7.41458       45.37446
O         10.14663       -7.66655       44.35379
H         11.91593       -5.67388       45.85158
H         10.28972       -5.32534       45.15152
H         10.42545       -5.90313       46.85815
N         11.37186       -8.40753       46.08970
C         11.35299       -9.80441       45.66800
C         11.90293      -10.68787       46.78191
O         13.05032      -10.50650       47.16737
C         12.19601       -9.97300       44.38023
C         12.09272      -11.34123       43.77837
O         12.75473      -11.61810       42.79168
O         11.24489      -12.25163       44.28531
H         11.84138       -8.15243       46.97307
H         10.29580      -10.08819       45.47033
H         13.26022       -9.75216       44.61395
H         11.86697       -9.26148       43.59642
N         11.11673      -11.63981       47.36980
C         11.54506      -12.44304       48.51546
C         11.48591      -13.94145       48.19670
O         11.23994      -14.73050       49.09851
C         10.70905      -12.03217       49.78109
C          9.21897      -12.47730       49.68963
C         10.82942      -10.50770       50.00005
C          8.34844      -12.03332       50.86830
H         10.15768      -11.76386       47.02462
H         12.60735      -12.21976       48.75614
H         11.15507      -12.53168       50.66980
H          9.16888      -13.58400       49.64991
H          8.75321      -12.08862       48.77099
H         10.33765       -9.94741       49.17488
H         10.36132      -10.19745       50.95573
H         11.89661      -10.20655       50.04956
H          7.32926      -12.46094       50.75545
H          8.77957      -12.38125       51.82998
H          8.23676      -10.92923       50.88466
N         11.73795      -14.40758       46.93352
C         11.61582      -15.82924       46.56242
C         12.08857      -16.20967       45.13636
O         12.11550      -17.40313       44.86686
C         10.14118      -16.29774       46.72543
C          9.19803      -15.51307       45.84570
O          9.68154      -14.52502       45.06644
O          8.00283      -15.75876       45.85196
H         12.00836      -13.70817       46.24049
H         12.26563      -16.40850       47.25524
H          9.80821      -16.18362       47.77684
H         10.06207      -17.37922       46.47929
N         12.48020      -15.31228       44.17981
C         13.00875      -15.69992       42.87703
C         12.04313      -16.37268       41.90850
O         12.50843      -16.74386       40.83968
H         12.49130      -14.31048       44.37097
H         13.87909      -16.36952       43.04267
H         13.38291      -14.78684       42.36231
N         10.71541      -16.56910       42.16592
C          9.81813      -17.25580       41.22388
C          9.53658      -16.49187       39.91303
O          8.76609      -17.00148       39.11078
C          8.49267      -17.66273       41.91912
C          7.62352      -16.53634       42.39520
O          7.96996      -15.37705       42.27046
O          6.44206      -16.81658       42.97612
H         10.34087      -16.27749       43.07899
H         10.29208      -18.22398       40.94731
H          8.73056      -18.30229       42.79613
H          7.89369      -18.27530       41.21049
N         10.13501      -15.30482       39.59848
C          9.91666      -14.59527       38.34171
C          8.61423      -13.81586       38.27189
O          8.39604      -13.16827       37.25553
H         10.84112      -14.91184       40.22492
H         10.00519      -15.30455       37.48939
H         10.72429      -13.84067       38.22567
N          7.71258      -13.80137       39.29347
C          6.46747      -13.03862       39.28397
C          6.39191      -12.11421       40.49597
O          7.32713      -12.07685       41.28619
C          5.27533      -14.01927       39.28664
C          5.26780      -14.91618       38.03796
C          4.05573      -15.81432       37.96798
N          3.90172      -16.65027       36.91643
O          3.20548      -15.78978       38.84685
H          7.89936      -14.36986       40.12533
H          6.38779      -12.40669       38.37075
H          4.32512      -13.44683       39.28436
H          5.30576      -14.64907       40.20325
H          6.18020      -15.54993       38.02787
H          5.26991      -14.27269       37.13109
H          4.60589      -16.68327       36.16474
H          3.07570      -17.26335       36.85179
N          5.28091      -11.35907       40.72138
C          5.07624      -10.50282       41.88487
C          3.96079      -11.09853       42.72610
O          2.89179      -11.37647       42.19458
C          4.72591       -9.05717       41.43247
C          4.38986       -8.14870       42.63103
C          5.88865       -8.43505       40.64497
H          4.50182      -11.41284       40.04636
H          5.99529      -10.44570       42.51252
H          3.83105       -9.09068       40.77133
H          3.50503       -8.53101       43.18074
H          5.24740       -8.08451       43.33479
H          4.13595       -7.12581       42.27962
H          5.61579       -7.41282       40.30472
H          6.79759       -8.36518       41.28149
H          6.12640       -9.04109       39.74640
N          4.12905      -11.26742       44.06784
C          3.10192      -11.79389       44.96014
C          2.50119      -10.65364       45.76118
O          2.97312       -9.53177       45.65753
C          3.75041      -12.87696       45.86179
C          2.84151      -13.55671       46.85121
N          1.77553      -14.27616       46.43365
O          3.09047      -13.48397       48.04521
H          5.00890      -10.93917       44.49540
H          2.27378      -12.23889       44.36680
H          4.59703      -12.41136       46.41509
H          4.15480      -13.67800       45.22044
H          1.55963      -14.36357       45.43065
H          1.16871      -14.75162       47.11761
N          1.39680      -10.85651       46.52550
C          0.75711       -9.81656       47.32465
C          1.65159       -9.37223       48.47713
O          1.77464       -8.17530       48.69568
C         -0.67354      -10.24760       47.72675
C         -0.79989      -11.53843       48.50168
C         -1.23581      -12.70747       47.84902
C         -0.53333      -11.58474       49.87667
C         -1.38494      -13.90210       48.55559
C         -0.70060      -12.78051       50.58657
C         -1.12082      -13.94159       49.92996
O         -1.27191      -15.08475       50.62865
H          0.96365      -11.78856       46.49864
H          0.58114       -8.92673       46.67678
H         -1.21374      -10.37871       46.76174
H         -1.20740       -9.43311       48.26220
H         -1.45240      -12.69887       46.78766
H         -0.21760      -10.69179       50.39964
H         -1.71118      -14.79341       48.03414
H         -0.50766      -12.80791       51.65021
H         -1.56308      -15.90799       50.21076
N          2.38321      -10.27619       49.19419
C          3.33818       -9.90362       50.24810
C          4.53415       -9.08384       49.74029
O          5.35275       -8.69234       50.56119
C          3.89467      -11.17461       50.94373
C          2.82250      -12.00039       51.67251
C          2.19409      -11.21903       52.79359
O          2.95542      -10.76131       53.80562
O          0.99533      -10.99394       52.79484
H          2.25752      -11.27203       48.96934
H          2.80652       -9.28735       51.00476
H          4.66313      -10.89057       51.69677
H          4.39492      -11.81494       50.18303
H          3.29771      -12.90621       52.10540
H          2.05122      -12.34269       50.95445
N          4.71051       -8.78948       48.42237
C          5.85469       -8.06790       47.87482
C          5.43288       -6.72919       47.28987
O          6.18665       -5.77547       47.42404
C          6.50632       -8.91554       46.76849
C          6.95233      -10.29328       47.28149
C          7.47712      -11.17373       46.18307
O          7.81249      -12.44667       46.46071
O          7.56893      -10.76613       45.03651
H          4.02662       -9.13169       47.74816
H          6.62585       -7.87529       48.65481
H          7.38787       -8.37672       46.35207
H          5.76586       -9.06050       45.95155
H          6.08464      -10.82125       47.72813
H          7.73148      -10.16206       48.06186
N          4.25213       -6.58164       46.62047
C          3.81829       -5.34292       46.01013
H          2.87579       -5.00575       46.49089
H          4.57410       -4.53624       46.10156
H          3.62352       -5.52223       44.93159
H          3.60551       -7.37227       46.53834
Ca         8.55475      -13.11686       43.73254
O          9.28492      -10.34440       42.49031
H          9.07619       -9.69257       43.20246
H          9.32595       -9.80554       41.66169
O          5.90820      -13.71177       43.58583
H          5.52071      -14.18020       42.80666
H          6.14974      -14.43129       44.22305
O         10.22237      -12.76194       41.36569
H         11.03305      -13.21596       41.70620
H         10.50674      -12.33740       40.51839

Ca 1.0



