%chk=holoCaM.loop1.water2.frame118.chk
%nprocshared=20
%mem=10GB
%nosave
#b3lyp/svp scf=(tight,noincore,xqc) Test 
#IOP(5/87=12) Density=Current Pop=(MK,readradii) iop(6/33=2) iop(6/42=6)

holoCaM.loop1.water2.frame118 

   0  1 
C         23.97130        5.93931       -4.17183
C         24.99730        6.96025       -4.54315
O         25.47754        6.90795       -5.66607
H         23.10980        6.02315       -4.86890
H         24.41531        4.92669       -4.26407
H         23.60940        6.08788       -3.13470
N         25.35926        7.94832       -3.67150
C         26.28483        9.00075       -4.05706
C         27.72930        8.48156       -3.96181
O         28.32250        8.53364       -2.89349
C         26.03963       10.28651       -3.21875
C         26.62227       11.49982       -3.89099
O         26.62963       12.58009       -3.32831
O         27.03627       11.39281       -5.16616
H         24.88448        8.00631       -2.75783
H         26.02168        9.26302       -5.10647
H         26.45040       10.14936       -2.19431
H         24.94947       10.48444       -3.12296
N         28.30127        7.85300       -5.02746
C         29.58334        7.13998       -5.00673
C         30.80265        7.99361       -4.66615
O         31.76197        7.43103       -4.15582
C         29.79131        6.46708       -6.39035
C         31.09845        5.67775       -6.58158
C         31.24638        4.50267       -5.60864
C         32.55228        3.74451       -5.87803
N         32.71779        2.63889       -4.93650
H         27.74343        7.79541       -5.88850
H         29.50404        6.34554       -4.23230
H         29.77626        7.26323       -7.16803
H         28.93406        5.78579       -6.58707
H         31.96806        6.36225       -6.48231
H         31.10524        5.28503       -7.62206
H         30.38384        3.81170       -5.72835
H         31.26369        4.87519       -4.56371
H         33.41489        4.44104       -5.77650
H         32.54355        3.34662       -6.91740
H         33.60907        2.13690       -5.15246
H         32.76538        3.00668       -3.95835
H         31.91952        1.96904       -5.02414
N         30.87570        9.32038       -4.95874
C         32.08720       10.12035       -4.73541
C         31.91267       11.04528       -3.53613
O         32.76588       11.01211       -2.65955
C         32.61501       10.80143       -6.04039
C         31.67296       11.72245       -6.76922
O         32.01746       12.28767       -7.79409
O         30.42760       11.84848       -6.31632
H         30.03744        9.76617       -5.34968
H         32.93502        9.45684       -4.44992
H         32.89247        9.99653       -6.75668
H         33.53809       11.36686       -5.78921
N         30.81241       11.83117       -3.37479
C         30.56105       12.63093       -2.19077
C         30.40636       14.08393       -2.56251
O         31.40047       14.73014       -2.85393
H         30.06353       11.82154       -4.07459
H         31.35089       12.53568       -1.41546
H         29.62207       12.24519       -1.73756
N         29.16264       14.64199       -2.59200
C         28.85537       16.03639       -2.94192
C         27.33925       16.37160       -2.90062
O         26.98165       17.44021       -3.37839
C         29.47480       16.42648       -4.31336
C         29.12206       15.47758       -5.40927
O         30.00176       14.89755       -6.02582
O         27.83847       15.26396       -5.72091
H         28.40455       13.99198       -2.38830
H         29.33152       16.71547       -2.20214
H         30.57980       16.46722       -4.23662
H         29.15981       17.45255       -4.59786
N         26.40094       15.58544       -2.28043
C         24.99226       15.93632       -2.16258
C         24.17009       15.82448       -3.43545
O         22.97544       16.06341       -3.34016
H         26.66941       14.74436       -1.76192
H         24.89983       16.95910       -1.73652
H         24.52245       15.23348       -1.43906
N         24.70106       15.47729       -4.64612
C         23.89471       15.36114       -5.86490
C         24.07965       14.00630       -6.54255
O         24.95252       13.23954       -6.16677
C         24.21630       16.51756       -6.84459
C         23.78020       17.88163       -6.28750
O         25.57798       16.53116       -7.19062
H         25.70684       15.30783       -4.71597
H         22.81452       15.43068       -5.61189
H         23.63347       16.37351       -7.77967
H         26.08211       16.95566       -6.44797
H         24.31426       18.11870       -5.34319
H         24.00208       18.67673       -7.03068
H         22.68707       17.87926       -6.09092
N         23.21798       13.64331       -7.53950
C         23.24028       12.36763       -8.25208
C         23.29487       12.64104       -9.75700
O         22.43252       13.33294      -10.27812
C         21.99142       11.52460       -7.82645
C         22.18468       11.05573       -6.35343
C         21.76767       10.31077       -8.74784
C         21.01908       10.25213       -5.77270
H         22.45533       14.29507       -7.77760
H         24.13566       11.76843       -7.97836
H         21.08284       12.16131       -7.90822
H         22.32840       11.94198       -5.70096
H         23.10093       10.42577       -6.28279
H         20.84568        9.76063       -8.47381
H         21.61319       10.63628       -9.79521
H         22.62409        9.61585       -8.69421
H         20.86802        9.29704       -6.31565
H         21.24797        9.99014       -4.71746
H         20.08580       10.85100       -5.79909
N         24.27531       12.06881      -10.51697
C         24.37004       12.16756      -11.97420
C         23.62265       11.01332      -12.61745
O         23.01968       10.22770      -11.91271
C         25.86105       12.15009      -12.42578
C         26.63813       13.35905      -11.90403
O         26.48730       10.93693      -12.07133
H         24.91407       11.41877      -10.05159
H         23.90092       13.11086      -12.33078
H         25.92012       12.23181      -13.52965
H         26.88270       11.02788      -11.16596
H         26.16952       14.30092      -12.26056
H         26.64119       13.33953      -10.80182
H         27.68736       13.32164      -12.26761
N         23.62091       10.84755      -13.96789
C         22.96256        9.72951      -14.64058
C         23.54747        8.39851      -14.17155
O         22.79097        7.53311      -13.75346
C         23.10470        9.88768      -16.17587
C         22.37269        8.78300      -16.94128
O         22.55557       11.12144      -16.57125
H         24.11809       11.54208      -14.54189
H         21.87405        9.75626      -14.40520
H         24.18406        9.83310      -16.45847
H         23.30812       11.74861      -16.73355
H         22.49138        8.94689      -18.03336
H         22.78695        7.78380      -16.69357
H         21.28894        8.79901      -16.69595
N         24.89457        8.18426      -14.19767
C         25.54362        6.93574      -13.78841
C         25.13890        6.53139      -12.38083
O         24.68079        5.41332      -12.19092
C         27.08047        7.10736      -13.87180
C         27.86405        5.82933      -13.52089
C         29.37757        6.08528      -13.61535
C         30.23523        4.83638      -13.34490
N         30.07184        4.32205      -11.98372
H         25.49196        8.96307      -14.51677
H         25.24545        6.12650      -14.49236
H         27.39535        7.92489      -13.18554
H         27.34588        7.40697      -14.90955
H         27.57824        5.01904      -14.22640
H         27.61009        5.51532      -12.48738
H         29.66568        6.88740      -12.90055
H         29.61417        6.43678      -14.64345
H         31.30188        5.11791      -13.49280
H         29.98827        4.03941      -14.08049
H         30.74468        3.53490      -11.83768
H         30.27692        5.07277      -11.28499
H         29.10565        3.95212      -11.84123
N         25.28055        7.40475      -11.34885
C         24.94249        7.09233       -9.96106
C         23.49392        6.63301       -9.85509
O         23.25183        5.55260       -9.33482
C         25.23493        8.31795       -9.05935
C         26.74747        8.63197       -9.02190
C         27.08488        9.84226       -8.19796
O         27.97320        9.74623       -7.19764
O         26.62095       10.93406       -8.47222
H         25.62913        8.34681      -11.57754
H         25.58350        6.25765       -9.59802
H         24.88948        8.11302       -8.02312
H         24.68040        9.19393       -9.44992
H         27.13057        8.82123      -10.04302
H         27.28925        7.75237       -8.61086
N         22.48515        7.37205      -10.38292
C         21.10373        6.94359      -10.37308
H         20.47480        7.69006      -10.90574
H         21.00466        5.96896      -10.89797
H         20.73990        6.84818       -9.32958
H         22.71069        8.25348      -10.84275
Ca        28.35821       12.62770       -6.46624
O         26.96361       14.72451       -8.83544
H         27.42322       15.14545       -9.60364
H         27.54273       14.94936       -8.07101
O         29.52805       13.19369       -9.24232
H         29.57887       12.22045       -9.41680
H         29.78267       13.61660      -10.10021

Ca 1.0



