%chk=holoCaM.loop1.water2.frame177.chk
%nprocshared=20
%mem=10GB
%nosave
#b3lyp/svp scf=(tight,noincore,xqc) Test 
#IOP(5/87=12) Density=Current Pop=(MK,readradii) iop(6/33=2) iop(6/42=6)

holoCaM.loop1.water2.frame177 

   0  1 
C          0.58443       70.74477      108.67058
C          0.64579       70.41101      110.12746
O          0.31318       69.29148      110.49413
H         -0.09288       71.60670      108.50919
H          1.60470       70.99941      108.31224
H          0.21520       69.87370      108.08690
N          1.11230       71.32707      111.02353
C          1.30673       70.97883      112.41991
C         -0.02267       70.74617      113.12443
O         -0.83276       71.65754      113.21985
C          2.14467       72.02974      113.16704
C          2.66638       71.45224      114.45487
O          2.34220       70.18857      114.79866
O          3.45351       72.08739      115.12900
H          1.42196       72.24919      110.67964
H          1.92266       70.04942      112.40689
H          1.56782       72.96574      113.33649
H          3.03742       72.27246      112.55108
N         -0.31086       69.51100      113.60746
C         -1.59682       69.12668      114.16789
C         -1.80585       69.62474      115.59709
O         -2.88150       70.14262      115.86279
C         -1.76332       67.59937      114.00643
C         -3.20032       67.11002      114.25621
C         -3.46036       65.72296      113.63733
C         -2.59696       64.59392      114.21574
N         -2.89233       63.32834      113.54061
H          0.38304       68.77160      113.44307
H         -2.39317       69.55146      113.51464
H         -1.03716       67.03947      114.63144
H         -1.53661       67.38737      112.93650
H         -3.90502       67.79793      113.73920
H         -3.43316       67.12838      115.34217
H         -3.27893       65.78750      112.54072
H         -4.53206       65.46859      113.78709
H         -2.80251       64.49345      115.30363
H         -1.51885       64.82483      114.07624
H         -2.66940       63.40561      112.52083
H         -2.30473       62.56922      113.95435
H         -3.90159       63.08013      113.65860
N         -0.83847       69.52124      116.56412
C         -1.06118       69.91983      117.96349
C         -0.34258       71.21079      118.36629
O         -0.47450       71.61273      119.51477
C         -0.73522       68.74525      118.91687
C          0.72070       68.37740      119.02927
O          1.58270       69.00413      118.43789
O          1.07967       67.35817      119.83221
H          0.08536       69.14900      116.29886
H         -2.14064       70.13649      118.11835
H         -1.30606       67.85211      118.58283
H         -1.08140       69.00520      119.94088
N          0.35792       71.95812      117.46775
C          0.90483       73.27246      117.77337
C          2.09616       73.25900      118.70429
O          2.07060       73.94908      119.71360
H          0.42628       71.64147      116.49071
H          0.09885       73.92857      118.17288
H          1.26061       73.72973      116.82545
N          3.21173       72.55221      118.37303
C          4.48625       72.64266      119.08356
C          5.61083       73.10247      118.13730
O          6.76900       73.04686      118.52695
C          4.79445       71.30443      119.79631
C          5.04289       70.12209      118.91017
O          5.06841       70.23950      117.70180
O          5.26805       68.91575      119.46208
H          3.16603       71.94457      117.54514
H          4.42654       73.39026      119.90520
H          3.93566       71.06606      120.46075
H          5.69461       71.43142      120.43524
N          5.33533       73.63218      116.90315
C          6.34022       74.14591      115.97907
C          7.11959       73.09506      115.19630
O          7.95849       73.49584      114.40412
H          4.35513       73.78936      116.63535
H          7.03461       74.81938      116.52776
H          5.82169       74.76387      115.21358
N          6.91595       71.75437      115.35061
C          7.67638       70.72216      114.63504
C          6.76208       69.69923      113.95579
O          5.55031       69.77697      114.08454
C          8.65914       70.03282      115.61957
C          9.87345       70.92187      115.92159
O          8.01301       69.64341      116.80643
H          6.22440       71.44287      116.03633
H          8.27752       71.17032      113.81384
H          9.08903       69.12244      115.15341
H          7.90473       70.44731      117.38106
H          9.56830       71.88266      116.38446
H         10.56377       70.38874      116.60891
H         10.42192       71.13460      114.97800
N          7.31835       68.71164      113.18200
C          6.56555       67.68335      112.46427
C          6.96403       66.30346      112.98493
O          8.10191       65.89413      112.80544
C          6.83593       67.82493      110.92833
C          6.24273       69.13796      110.34653
C          6.36843       66.61412      110.09881
C          4.70685       69.19661      110.31028
H          8.34301       68.69104      113.07792
H          5.48417       67.80008      112.64307
H          7.93997       67.87224      110.79123
H          6.60237       69.25511      109.30058
H          6.62260       70.00561      110.92617
H          5.28360       66.44191      110.20881
H          6.60310       66.77275      109.02425
H          6.90337       65.69391      110.40705
H          4.29042       68.39242      109.66850
H          4.26613       69.11931      111.32300
H          4.38449       70.16385      109.87196
N          6.04768       65.53065      113.64348
C          6.30754       64.16250      114.10309
C          6.33592       63.19131      112.92600
O          6.17645       63.61211      111.79285
C          5.22223       63.69519      115.12114
C          5.18795       64.55670      116.38574
O          3.95299       63.61082      114.52487
H          5.12702       65.94501      113.83488
H          7.28180       64.13342      114.63911
H          5.47295       62.68036      115.48829
H          3.54170       64.51009      114.54949
H          6.18464       64.56142      116.87535
H          4.89195       65.59307      116.13699
H          4.44450       64.13963      117.09704
N          6.49080       61.85393      113.13667
C          6.41234       60.84314      112.08279
C          5.04072       60.88623      111.40304
O          4.98217       61.02143      110.18963
C          6.68845       59.44081      112.69029
C          6.71664       58.33673      111.63209
O          7.93911       59.44888      113.33607
H          6.64971       61.53383      114.10204
H          7.20771       61.04443      111.32957
H          5.87831       59.18701      113.41696
H          7.77358       59.45129      114.31557
H          7.51943       58.53674      110.89040
H          6.92455       57.36097      112.12178
H          5.74261       58.26149      111.10649
N          3.89692       60.80085      112.14338
C          2.53898       60.85050      111.58847
C          2.29633       62.10068      110.76509
O          1.86912       61.98421      109.62457
C          1.49449       60.81683      112.73258
C          1.35849       59.44498      113.42055
C          0.78616       58.33444      112.50847
C         -0.59081       58.64905      111.88083
N         -1.62735       58.88220      112.88870
H          4.00315       60.72151      113.16625
H          2.37278       59.98914      110.91030
H          0.49373       61.10876      112.35366
H          1.76771       61.58484      113.49039
H          0.68373       59.56181      114.29418
H          2.34376       59.11961      113.81709
H          0.69808       57.40332      113.10808
H          1.49849       58.11888      111.68620
H         -0.89115       57.78380      111.25029
H         -0.52402       59.52633      111.20220
H         -1.41340       59.73497      113.45287
H         -2.54185       59.03727      112.40597
H         -1.71285       58.04964      113.51535
N          2.53379       63.33030      111.28661
C          2.28016       64.58310      110.57558
C          2.98951       64.59214      109.23102
O          2.36120       64.92747      108.23624
C          2.69325       65.77916      111.46022
C          1.78524       65.87293      112.70826
C          2.22207       66.91021      113.70112
O          3.17012       67.64380      113.48019
O          1.56139       67.01729      114.86888
H          2.93962       63.36393      112.23106
H          1.19043       64.69037      110.37305
H          2.60098       66.73094      110.89149
H          3.75386       65.64744      111.76442
H          1.77008       64.90859      113.24691
H          0.74156       66.09004      112.39524
N          4.26700       64.14619      109.10815
C          4.93593       64.04851      107.82975
H          5.94346       63.59971      107.96449
H          4.35224       63.39344      107.14667
H          5.04546       65.05583      107.37840
H          4.76443       63.81699      109.94021
Ca         3.32757       68.85736      116.30173
O          3.31962       66.52733      118.07089
H          2.62238       65.82758      118.00583
H          3.98614       66.16231      118.70491
O          6.14698       67.63440      116.79953
H          6.30597       67.08591      117.60814
H          6.88432       67.39140      116.18545

Ca 1.0



