%chk=holoCaM-CaMKII.loop2.water2.frame142.chk
%nprocshared=20
%mem=10GB
%nosave
#b3lyp/svp scf=(tight,noincore,xqc) Test 
#IOP(5/87=12) Density=Current Pop=(MK,readradii) iop(6/33=2) iop(6/42=6)

holoCaM-CaMKII.loop2.water2.frame142 

   -2  1 
C         14.30353       13.91922       52.44079
C         12.92901       13.43743       52.05959
O         12.61299       12.28242       52.30191
H         15.07717       13.32254       51.91568
H         14.44867       14.98926       52.17593
H         14.44434       13.81741       53.53774
N         12.04668       14.29033       51.47336
C         10.67226       13.93847       51.13070
C         10.58498       12.86070       50.06139
O         11.18712       13.02025       49.00847
C          9.93589       15.19393       50.63205
C          8.51181       14.87203       50.30054
O          8.07945       15.08897       49.18028
O          7.72506       14.29371       51.22743
H         12.35819       15.25992       51.30327
H         10.15275       13.59745       52.05351
H         10.44677       15.61354       49.73661
H          9.94960       15.96434       51.43020
N          9.77085       11.77517       50.24418
C          9.56701       10.74356       49.23397
C          8.10899       10.58876       48.78487
O          7.90671        9.83044       47.84592
C         10.06212        9.40433       49.79040
H          9.26962       11.67811       51.13629
H         10.16232       10.98248       48.32629
H          9.46996        9.11948       50.68824
H          9.96334        8.59984       49.03058
H         11.13088        9.48215       50.08124
N          7.04331       11.18890       49.41001
C          5.65056       10.90165       49.02896
C          4.76689       12.12962       48.80508
O          3.62895       11.94290       48.39446
C          5.01359        9.97517       50.08386
C          5.01729       10.56077       51.46717
O          4.43549       11.60661       51.69774
O          5.65727        9.92044       52.46353
H          7.20934       11.76790       50.24408
H          5.62842       10.34315       48.06818
H          5.58428        9.02202       50.10350
H          3.96744        9.73526       49.79383
N          5.18548       13.39909       49.05315
C          4.34386       14.56635       48.84148
C          3.12171       14.57812       49.73615
O          2.01293       14.65459       49.22621
H          6.13797       13.55865       49.39189
H          4.04286       14.61923       47.77199
H          4.93197       15.48166       49.07157
N          3.26490       14.56278       51.09101
C          2.15941       14.72792       52.03477
C          2.31311       16.02030       52.84561
O          1.52402       16.24549       53.75305
C          2.01767       13.48945       52.95174
C          3.16658       13.19694       53.88538
N          3.04030       12.20542       54.79341
O          4.20110       13.84259       53.84321
H          4.21873       14.48348       51.46925
H          1.19083       14.80838       51.49379
H          1.83358       12.58802       52.32788
H          1.11682       13.64523       53.58492
H          2.17881       11.64461       54.85093
H          3.79541       12.01263       55.45884
N          3.27676       16.94029       52.54139
C          3.46589       18.20267       53.24068
C          4.06268       18.09289       54.63484
O          4.28580       19.13923       55.22812
H          3.86839       16.79285       51.71568
H          2.50199       18.75495       53.27404
H          4.18244       18.81409       52.64995
N          4.34738       16.89967       55.23254
C          4.90672       16.77867       56.57908
C          6.16602       15.91471       56.59399
O          6.55352       15.37026       55.56864
C          3.83567       16.17737       57.53270
C          2.63151       17.11308       57.71250
O          3.43281       14.89637       57.10861
H          4.12543       16.03283       54.73654
H          5.19317       17.77669       56.97762
H          4.26076       16.06683       58.55074
H          2.78179       15.00367       56.36710
H          2.10718       17.28510       56.74980
H          1.91653       16.66681       58.43587
H          2.97186       18.09103       58.11646
N          6.81452       15.70541       57.77568
C          7.90669       14.76279       57.98020
C          7.31121       13.52319       58.61276
O          6.60010       13.62033       59.60492
C          9.02160       15.38750       58.87876
C          9.81475       16.50378       58.15064
C          9.99055       14.32938       59.45119
C         10.70089       16.01794       56.99221
H          6.43422       16.15265       58.62320
H          8.35599       14.44691       57.01715
H          8.52442       15.84887       59.76121
H         10.48389       16.99578       58.89037
H          9.10927       17.27268       57.77124
H         10.76587       14.81475       60.08085
H          9.44687       13.62263       60.11048
H         10.48167       13.74264       58.64883
H         11.46867       15.29770       57.34472
H         10.10474       15.54415       56.19046
H         11.24092       16.88219       56.55323
N          7.60979       12.30484       58.08898
C          7.12002       11.04372       58.62046
C          8.16414       10.48292       59.56401
O          9.22127       11.08240       59.69915
C          6.89736       10.06300       57.44753
C          5.98081       10.59272       56.37222
O          5.12730        9.86669       55.88920
O          6.16923       11.83082       55.86695
H          8.30184       12.25889       57.32616
H          6.17404       11.20267       59.18482
H          6.52577        9.07913       57.80797
H          7.88675        9.89325       56.96738
N          7.94428        9.34978       60.28000
C          8.95453        8.81225       61.18182
C         10.20444        8.36288       60.41340
O         11.26937        8.84884       60.76129
C          8.36095        7.72696       62.10737
C          9.39158        7.14364       63.04742
C          9.64611        5.76155       63.03559
C         10.10491        7.96303       63.94331
C         10.59544        5.21014       63.90009
C         11.05860        7.40724       64.80129
C         11.30284        6.03206       64.78053
H          7.02732        8.88083       60.20373
H          9.25927        9.63056       61.87357
H          7.88379        6.91984       61.52823
H          7.55156        8.19029       62.71304
H          9.10852        5.10887       62.35902
H          9.93008        9.03033       63.97954
H         10.78248        4.14446       63.88629
H         11.60793        8.04320       65.48359
H         12.03921        5.60302       65.44735
N         10.18433        7.47673       59.36180
C         11.37489        7.05687       58.62179
C         12.24546        8.20853       58.15438
O         13.44701        8.17841       58.38409
C         10.80342        6.31151       57.40750
C          9.55490        5.69887       57.98621
C          8.99797        6.85529       58.80834
H         11.96010        6.35945       59.26252
H         10.45949        7.03537       56.63378
H         11.51241        5.60021       56.93223
H          8.84378        5.27174       57.24824
H          9.87273        4.89213       58.68719
H          8.46837        7.60036       58.17705
H          8.31427        6.41780       59.55073
N         11.68957        9.27320       57.51182
C         12.44798       10.42928       57.03601
C         13.21674       11.05787       58.18306
O         14.42950       11.17702       58.08395
C         11.49850       11.46418       56.39418
C         10.84198       10.91877       55.10852
C          9.77035       11.81972       54.57584
O          9.00794       11.39787       53.55266
O          9.48329       12.86220       55.14266
H         10.66496        9.26707       57.39016
H         13.17736       10.10723       56.25889
H         12.05563       12.39042       56.13106
H         10.71503       11.72880       57.13894
H         10.33868        9.95450       55.32280
H         11.61058       10.74374       54.32823
N         12.57488       11.44376       59.31926
C         13.24630       11.99955       60.47538
H         14.33932       12.11040       60.31822
H         12.81701       12.99601       60.70649
H         13.08506       11.32857       61.34595
H         11.56086       11.31088       59.38516
Ca         6.93526       12.17509       53.78839
O          6.24986       16.32592       52.42337
H          6.61357       17.22774       52.24403
H          5.98613       15.99448       51.52929
O          8.71580       15.90060       53.82605
H          9.31816       15.11705       53.85441
H          9.32193       16.68005       53.76402

Ca 1.0



