%chk=holoCaM-CaMKII.loop4.water2.frame224.chk
%nprocshared=20
%mem=10GB
%nosave
#b3lyp/svp scf=(tight,noincore,xqc) Test 
#IOP(5/87=12) Density=Current Pop=(MK,readradii) iop(6/33=2) iop(6/42=6)

holoCaM-CaMKII.loop4.water2.frame224 

   -3  1 
C         26.46959       52.49345       38.10280
C         27.14390       52.90573       36.82524
O         28.32762       53.19852       36.84763
H         25.39804       52.25039       37.93662
H         26.97233       51.59868       38.52344
H         26.52438       53.32616       38.83537
N         26.43958       52.95027       35.66362
C         26.99609       53.37789       34.38189
C         27.44895       54.83375       34.45533
O         26.63106       55.69802       34.73629
C         25.91560       53.15245       33.29998
C         26.20047       53.67466       31.92036
O         27.27728       53.30255       31.20592
O         25.40075       54.44152       31.40813
H         25.44916       52.66125       35.69875
H         27.86209       52.72893       34.13902
H         24.97035       53.63211       33.63823
H         25.73121       52.05783       33.22634
N         28.75501       55.16286       34.21208
C         29.29628       56.52148       34.27870
C         29.77625       57.03033       32.92120
O         30.13269       58.20006       32.86768
C         30.44528       56.63246       35.34166
C         31.67506       55.75491       34.97272
C         29.90689       56.30304       36.74121
C         32.83819       55.82125       35.96644
H         29.39675       54.40668       33.97011
H         28.48806       57.22124       34.58398
H         30.78209       57.69297       35.37276
H         32.06380       56.07386       33.98152
H         31.37225       54.69907       34.90672
H         30.67000       56.50155       37.52093
H         29.02957       56.94136       36.97543
H         29.61236       55.24162       36.80182
H         33.67826       55.19891       35.58863
H         33.19435       56.86446       36.09010
H         32.54561       55.40426       36.95232
N         29.82027       56.25199       31.79220
C         30.25189       56.77996       30.49460
C         29.16353       56.72116       29.42410
O         29.38877       57.30458       28.37272
C         31.58254       56.14026       30.03472
C         31.54673       54.66369       29.75720
O         30.41189       53.95554       29.87897
O         32.56843       54.09921       29.40055
H         29.55160       55.26245       31.84980
H         30.47751       57.86294       30.59938
H         32.34688       56.32724       30.82031
H         31.92169       56.64923       29.10556
N         27.95939       56.09321       29.60706
C         26.85603       56.22281       28.65800
C         26.47249       54.96341       27.90253
O         25.59712       55.07604       27.05588
H         27.78227       55.57076       30.47146
H         27.10396       56.97383       27.88028
H         25.96844       56.61038       29.20420
N         27.05372       53.74777       28.11496
C         26.75980       52.57105       27.29017
C         25.79225       51.58340       27.94456
O         25.55064       50.53658       27.35947
C         28.07594       51.92086       26.80976
C         28.96525       51.45792       27.92740
O         30.09802       51.89814       28.03070
O         28.53037       50.54203       28.80566
H         27.75020       53.65217       28.86450
H         26.23206       52.87623       26.35976
H         28.63142       52.66354       26.19533
H         27.84419       51.05185       26.15723
N         25.10667       51.89127       29.08234
C         24.04320       51.05407       29.62746
C         24.49745       49.75827       30.26793
O         23.63027       49.02547       30.72829
H         25.25140       52.80670       29.51962
H         23.30713       50.83841       28.82234
H         23.51337       51.62797       30.41862
N         25.80955       49.41184       30.37736
C         26.27996       48.20485       31.05302
C         27.15577       48.59406       32.23012
O         27.44859       49.77765       32.37775
C         27.08926       47.33408       30.06804
C         26.29149       46.89990       28.82796
C         25.14125       45.99289       29.17985
N         23.86835       46.33912       28.87858
O         25.36317       44.92714       29.73516
H         26.52158       50.04752       30.00002
H         25.42192       47.61738       31.44899
H         27.47754       46.42954       30.58467
H         27.96170       47.92334       29.71585
H         26.97014       46.34787       28.14257
H         25.93289       47.80082       28.28482
H         23.65899       47.23142       28.40792
H         23.08682       45.71106       29.11751
N         27.59075       47.66644       33.13483
C         28.43914       48.02836       34.26744
C         29.68100       47.14518       34.28684
O         29.57942       46.00339       34.72018
C         27.65263       47.93138       35.61093
C         28.47694       48.51970       36.76883
C         26.30055       48.66252       35.54039
H         27.28050       46.68519       33.03941
H         28.75721       49.08452       34.16160
H         27.42874       46.86343       35.83071
H         29.44690       47.99301       36.87778
H         28.67307       49.59935       36.58958
H         27.92433       48.42135       37.72728
H         25.64912       48.20454       34.76577
H         25.76541       48.57090       36.51055
H         26.43900       49.73910       35.30581
N         30.88246       47.58166       33.80112
C         32.08515       46.75450       33.84679
C         32.64493       46.66719       35.27098
O         32.10332       47.28741       36.17409
C         33.15788       47.18025       32.80278
C         33.96905       48.42437       33.07880
N         33.48464       49.66177       32.84224
O         35.12928       48.30170       33.43837
H         30.92009       48.48622       33.32567
H         31.78922       45.73352       33.51568
H         32.71829       47.24330       31.78718
H         33.88436       46.34325       32.74693
H         32.54283       49.79891       32.45847
H         34.08466       50.48779       32.99289
N         33.73195       45.88772       35.53544
C         34.31636       45.69035       36.86585
C         34.82452       46.98033       37.49000
O         34.61100       47.18436       38.67652
C         35.45043       44.65109       36.77155
C         36.07231       44.30998       38.10604
C         35.28110       43.84673       39.17301
C         37.46012       44.43098       38.28658
C         35.86801       43.51594       40.39671
C         38.04642       44.08611       39.50756
C         37.25103       43.62714       40.56727
O         37.80358       43.28526       41.74828
H         34.15152       45.37496       34.74624
H         33.52990       45.26877       37.52783
H         36.22688       45.01768       36.06308
H         35.02216       43.71592       36.35097
H         34.20992       43.74064       39.06454
H         38.09241       44.77767       37.47856
H         35.24624       43.16501       41.21070
H         39.11895       44.17198       39.62655
H         38.75810       43.32987       41.90114
N         35.47386       47.90925       36.74055
C         35.89148       49.21908       37.23939
C         34.70799       49.93764       37.87299
O         34.80468       50.38624       39.00662
C         36.45526       50.04110       36.04893
C         37.01119       51.42572       36.42552
C         37.55241       52.17192       35.22744
O         37.51070       51.68979       34.10491
O         38.09132       53.39395       35.39705
H         35.62617       47.68919       35.74770
H         36.69531       49.09359       37.99862
H         35.65563       50.17749       35.28774
H         37.28099       49.45823       35.58458
H         37.83425       51.30016       37.16046
H         36.21104       52.04568       36.88269
N         33.55419       50.07799       37.16976
C         32.39680       50.83580       37.64286
C         31.63714       50.13175       38.76330
O         30.77444       50.75738       39.36480
C         31.42334       51.06042       36.47499
C         32.09906       51.74977       35.27293
C         31.18104       51.74418       34.09974
O         31.00402       52.82839       33.34976
O         30.59478       50.72737       33.78705
H         33.53220       49.65406       36.23228
H         32.75393       51.82833       37.99743
H         30.54506       51.65870       36.80148
H         31.06302       50.05574       36.15600
H         32.99240       51.19713       34.94844
H         32.43598       52.77389       35.53038
N         31.84803       48.81958       39.05805
C         31.11056       48.11769       40.08552
H         30.02294       48.14390       39.86073
H         31.43534       47.05475       40.12122
H         31.30193       48.58077       41.07573
H         32.52698       48.28071       38.51564
Ca        29.22022       52.60430       32.02737
O         30.48447       48.66191       30.31759
H         30.24016       48.84714       29.37789
H         31.18487       47.96952       30.23981
O         32.37188       50.99221       29.89742
H         33.15359       50.38799       29.83343
H         32.62259       51.65051       30.59297

Ca 1.0



