%chk=holoCaM.loop3.water2.frame168.chk
%nprocshared=20
%mem=10GB
%nosave
#b3lyp/svp scf=(tight,noincore,xqc) Test 
#IOP(5/87=12) Density=Current Pop=(MK,readradii) iop(6/33=2) iop(6/42=6)

holoCaM.loop3.water2.frame168 

   0  1 
C         16.07391       96.79738        0.62583
C         15.78337       96.10432        1.92279
O         16.57879       96.21774        2.84386
H         17.04371       96.43357        0.22646
H         15.28448       96.59283       -0.12788
H         16.13256       97.89289        0.79205
N         14.64628       95.37210        2.07547
C         14.33408       94.65658        3.30391
C         15.32615       93.51632        3.48134
O         15.43454       92.69292        2.58273
C         12.88595       94.12567        3.24362
C         12.39647       93.60530        4.56315
O         13.17717       93.63112        5.65318
O         11.25520       93.19887        4.66202
H         13.97405       95.33587        1.29309
H         14.38225       95.37869        4.15029
H         12.79571       93.33750        2.46492
H         12.20898       94.96192        2.96821
N         16.08583       93.40811        4.60864
C         17.10207       92.37362        4.79343
C         16.72614       91.34250        5.85019
O         17.53971       90.45640        6.07729
C         18.46474       93.03683        5.10548
C         19.12377       93.82081        3.94239
C         19.94281       92.97136        2.93539
C         19.16069       92.13427        1.90831
N         20.07718       91.35207        1.07721
H         15.94662       94.09156        5.36929
H         17.19163       91.75688        3.89761
H         19.21141       92.29245        5.45710
H         18.28895       93.73676        5.95288
H         19.89086       94.46129        4.43197
H         18.41279       94.50533        3.43717
H         20.62881       92.31303        3.51114
H         20.57360       93.67424        2.34669
H         18.55569       92.81319        1.26618
H         18.49177       91.41181        2.39090
H         20.75715       91.97361        0.58384
H         20.59596       90.66861        1.67732
H         19.52592       90.81492        0.36904
N         15.50032       91.30963        6.45511
C         15.08218       90.21581        7.33534
C         13.96796       89.37248        6.72494
O         13.78816       88.26569        7.21478
C         14.69652       90.73004        8.73450
C         13.58007       91.72440        8.65776
O         12.48320       91.41756        8.22315
O         13.84152       92.99461        8.97777
H         14.82204       92.04519        6.24302
H         15.93267       89.51412        7.47815
H         15.58900       91.23074        9.17130
H         14.41013       89.89278        9.40571
N         13.17779       89.79362        5.68377
C         12.21679       88.90481        5.03816
C         10.75430       89.21205        5.30712
O          9.94473       88.38266        4.91640
H         13.26922       90.74823        5.31020
H         12.36575       87.86569        5.39926
H         12.41326       88.88174        3.94444
N         10.31527       90.33102        5.95911
C          8.91061       90.51093        6.34823
C          8.13257       91.48758        5.46546
O          6.99314       91.78343        5.80007
C          8.78891       90.87799        7.85059
C          9.26823       92.25840        8.24073
N          9.00048       92.73242        9.47850
O          9.86929       92.96438        7.44825
H         10.99304       91.06260        6.20740
H          8.36817       89.54463        6.25047
H          9.30798       90.12015        8.47747
H          7.70789       90.83267        8.10712
H          8.48112       92.16142       10.16098
H          9.28504       93.68562        9.74561
N          8.62969       91.96463        4.28825
C          7.86608       92.83761        3.40145
C          7.71462       94.27523        3.88748
O          7.06578       95.04490        3.19307
H          9.54185       91.62668        3.95435
H          6.86493       92.38386        3.22490
H          8.38503       92.88754        2.42122
N          8.28362       94.71746        5.04397
C          8.17553       96.07917        5.56518
C          9.54982       96.65996        5.85007
O         10.37374       95.97682        6.44273
C          7.42918       96.05078        6.90860
C          5.98621       95.65072        6.77318
C          5.54492       94.42928        7.30047
C          5.06233       96.50870        6.15041
C          4.20019       94.06607        7.20583
C          3.71336       96.14929        6.06882
C          3.27849       94.92460        6.59744
O          1.98089       94.56514        6.53283
H          8.81226       94.05060        5.61288
H          7.61827       96.75187        4.87515
H          7.45085       97.05757        7.38444
H          7.96503       95.35163        7.58748
H          6.24349       93.75697        7.78261
H          5.38069       97.46333        5.74815
H          3.87450       93.11860        7.61436
H          3.00712       96.82466        5.60146
H          1.30767       95.13561        6.13569
N          9.81565       97.96548        5.56411
C         11.02030       98.66699        6.00840
C         10.62597       99.84439        6.89654
O          9.99486      100.78031        6.42591
C         11.91430       99.11513        4.81072
C         11.07697       99.69780        3.63759
C         12.78061       97.93080        4.34869
C         11.91357      100.27063        2.49576
H          9.09151       98.51576        5.07641
H         11.64134       98.00236        6.64680
H         12.62492       99.88640        5.18665
H         10.42929      100.51713        4.00818
H         10.42383       98.90326        3.21351
H         13.39509       97.56058        5.19737
H         12.14797       97.10184        3.97587
H         13.50072       98.23421        3.56342
H         12.55578      101.09490        2.86881
H         12.54103       99.49230        2.01768
H         11.23240      100.67114        1.71507
N         10.96166       99.84328        8.22106
C         10.64385      100.93483        9.14152
C         11.49213      102.16683        8.85220
O         12.30230      102.13745        7.94039
C         10.88422      100.47671       10.59827
O         12.24743      100.24881       10.84478
H         11.44074       99.01310        8.59851
H          9.56205      101.17866        9.05467
H         10.27672       99.56801       10.81919
H         10.53190      101.24547       11.31644
H         12.40783       99.27697       10.74283
N         11.39589      103.27575        9.63700
C         12.28720      104.42717        9.51772
C         13.73513      104.01840        9.75059
O         14.58804      104.36833        8.94823
C         11.90022      105.49917       10.54325
H         10.68479      103.28505       10.38433
H         12.18416      104.88590        8.50852
H         12.56971      106.38101       10.44575
H         10.85632      105.83369       10.36383
H         11.97619      105.10516       11.57951
N         14.06960      103.24902       10.82759
C         15.43374      102.82750       11.14788
C         16.11033      102.15064        9.97096
O         17.18787      102.57158        9.57348
C         15.40947      101.86194       12.34479
H         13.30493      102.93309       11.44436
H         16.03206      103.71910       11.43621
H         16.44075      101.54799       12.61252
H         14.95081      102.35481       13.22771
H         14.81553      100.95135       12.10887
N         15.51509      101.09603        9.36104
C         16.08407      100.36510        8.23100
C         16.33754      101.28843        7.05746
O         17.47414      101.38305        6.61441
C         15.11660       99.22906        7.84910
C         15.12038       98.16957        8.95825
C         13.97435       97.22644        8.84317
O         13.72927       96.57123        7.70196
O         13.27955       97.00032        9.82113
H         14.59312      100.80901        9.72327
H         17.06014       99.91347        8.52518
H         15.41726       98.73492        6.89787
H         14.09910       99.65778        7.70911
H         15.06868       98.62160        9.97158
H         16.07732       97.60631        8.89498
N         15.33079      102.01715        6.51299
C         15.54239      102.92946        5.41306
H         16.28541      103.70328        5.70212
H         15.90743      102.37325        4.52443
H         14.58709      103.43384        5.15525
H         14.38705      101.93276        6.90015
Ca        12.66308       94.67373        8.11497
O          9.96436       96.36700        9.22656
H         10.81388       96.76687        8.91648
H          9.32957       97.12582        9.24740
O         11.66068       93.88184       10.72228
H         11.61863       94.52837       11.46973
H         11.38114       93.01757       11.11576

Ca 1.0



