%chk=holoCaM-CaMKII.loop4.water1.frame412.chk
%nprocshared=20
%mem=10GB
%nosave
#b3lyp/svp scf=(tight,noincore,xqc) Test 
#IOP(5/87=12) Density=Current Pop=(MK,readradii) iop(6/33=2) iop(6/42=6)

holoCaM-CaMKII.loop4.water1.frame412 

   -3  1 
C         36.61685       48.99165       57.95118
C         35.20561       48.52788       58.15020
O         34.32549       49.01893       57.45955
H         37.32171       48.43598       58.60478
H         36.91012       48.81887       56.89391
H         36.69214       50.07454       58.17957
N         34.91555       47.57459       59.07919
C         33.58360       47.02465       59.27465
C         33.07678       47.37058       60.67126
O         33.64400       46.92650       61.65932
C         33.65728       45.51221       59.00479
C         32.37674       44.79129       59.26283
O         32.37515       43.77997       60.14418
O         31.35276       45.08832       58.66992
H         35.67929       47.19990       59.66353
H         32.87403       47.45539       58.53351
H         34.44346       45.05962       59.64834
H         33.94800       45.34875       57.94446
N         32.00380       48.20368       60.80123
C         31.40731       48.62193       62.07017
C         30.76680       47.42864       62.76066
O         31.09682       47.14222       63.90273
C         30.32110       49.74202       61.81615
C         30.92972       51.13886       61.50519
C         29.35710       49.93109       63.00981
C         31.86207       51.22034       60.30064
H         31.59312       48.57442       59.93417
H         32.18376       49.05154       62.74235
H         29.67629       49.42869       60.96929
H         31.48592       51.50463       62.39562
H         30.09183       51.84632       61.31185
H         28.78594       49.00431       63.22502
H         29.90708       50.23739       63.92302
H         28.59468       50.70345       62.76765
H         31.34254       50.88413       59.38335
H         32.17642       52.27622       60.15772
H         32.77843       50.61925       60.46498
N         29.75508       46.76474       62.14369
C         28.88554       45.79902       62.81102
C         29.63040       44.56384       63.27314
O         29.60429       44.24078       64.45204
C         27.76331       45.36670       61.84097
C         26.96072       46.53916       61.35125
O         26.28743       47.19125       62.13226
O         27.00239       46.89437       60.05071
H         29.53630       47.03903       61.17370
H         28.41278       46.29096       63.69062
H         27.08157       44.63584       62.32667
H         28.22232       44.87091       60.96456
N         30.26451       43.79678       62.35477
C         30.89718       42.51712       62.62011
C         30.21886       41.43296       61.80444
O         29.87496       40.39739       62.35553
H         30.27589       44.14749       61.39041
H         30.87718       42.24824       63.69943
H         31.96155       42.58577       62.31719
N         29.97075       41.62699       60.47678
C         29.36467       40.65379       59.58164
C         30.25386       40.41271       58.35561
O         29.84180       39.67556       57.47091
C         27.93374       41.10629       59.21155
C         27.82859       42.50403       58.67584
O         27.03277       43.39491       59.29565
O         28.43417       42.83551       57.67422
H         30.20363       42.53211       60.05140
H         29.24209       39.66914       60.08425
H         27.30942       41.05764       60.13128
H         27.49896       40.39478       58.47777
N         31.51709       40.93160       58.27135
C         32.45636       40.60710       57.21163
C         32.23304       41.30204       55.88566
O         33.05065       41.06385       55.00717
H         31.90006       41.47921       59.05203
H         32.49052       39.50496       57.07327
H         33.46828       40.92781       57.54467
N         31.21267       42.18053       55.64759
C         31.08720       42.90510       54.37885
C         31.17134       44.40536       54.60176
O         31.01590       44.85116       55.73156
C         29.83895       42.44159       53.59142
C         28.47814       42.66270       54.27785
C         28.08552       44.11176       54.33417
N         27.89553       44.80519       53.18964
O         27.91735       44.66073       55.41264
H         30.52545       42.36557       56.38902
H         31.95418       42.65788       53.72965
H         29.95126       41.34625       53.43958
H         29.83221       42.91009       52.58411
H         28.49259       42.20688       55.28579
H         27.69178       42.13572       53.69613
H         28.00557       44.35524       52.26945
H         27.62530       45.79265       53.22278
N         31.52653       45.23742       53.57628
C         31.74256       46.67096       53.75434
C         30.89315       47.43553       52.74613
O         31.17236       47.37560       51.55627
C         33.26258       46.99984       53.61664
C         33.56330       48.48956       53.84801
C         34.09795       46.17832       54.61711
H         31.72045       44.82821       52.64900
H         31.44020       46.97263       54.77906
H         33.59646       46.73257       52.58980
H         34.64775       48.68815       53.70568
H         33.00765       49.12851       53.13333
H         33.30106       48.78035       54.88461
H         33.96918       45.08955       54.44535
H         35.17920       46.40624       54.49937
H         33.79929       46.41279       55.66184
N         29.81544       48.15891       53.16147
C         28.96956       48.95812       52.27309
C         29.70820       50.18620       51.77507
O         30.84918       50.40821       52.14725
C         27.72287       49.45368       53.05588
C         26.79941       48.32640       53.41528
N         26.56383       48.00189       54.70619
O         26.24174       47.70522       52.52224
H         29.57133       48.12420       54.15945
H         28.63669       48.34626       51.40569
H         27.11197       50.16071       52.45902
H         28.06133       50.00002       53.96295
H         27.02248       48.51185       55.47496
H         25.92382       47.22778       54.93364
N         29.06321       51.07484       50.96806
C         29.57341       52.40815       50.67507
C         29.63617       53.20242       51.97878
O         30.65000       53.82309       52.26374
C         28.62327       53.12096       49.68622
C         29.19955       54.41958       49.17494
C         30.35114       54.40480       48.36806
C         28.58875       55.64808       49.47417
C         30.88141       55.59641       47.86821
C         29.12557       56.84133       48.97772
C         30.27308       56.81806       48.17037
O         30.79691       57.95868       47.67799
H         28.12857       50.82362       50.61115
H         30.57475       52.32323       50.19852
H         27.64011       53.28512       50.18086
H         28.44248       52.47247       48.80124
H         30.83237       53.46838       48.11435
H         27.70087       55.68422       50.09276
H         31.76427       55.56845       47.24159
H         28.64741       57.78241       49.21782
H         30.40588       58.82521       47.85847
N         28.57328       53.16203       52.84277
C         28.50211       53.84607       54.13829
C         29.62852       53.45900       55.09504
O         29.79400       54.14665       56.09298
C         27.12755       53.51210       54.78977
C         26.84480       54.15990       56.15738
C         25.50410       53.72915       56.68313
O         24.48437       53.98980       56.06527
O         25.42276       53.04972       57.84423
H         27.75730       52.59988       52.55572
H         28.57855       54.93838       53.94320
H         27.06587       52.40670       54.91674
H         26.32624       53.82384       54.08401
H         26.87243       55.26637       56.06961
H         27.59838       53.83609       56.90217
N         30.44093       52.38850       54.87355
C         31.48459       51.97617       55.80217
C         32.86891       52.21264       55.21880
O         33.78784       52.45294       55.99030
C         31.27858       50.50489       56.20946
C         29.89031       50.26954       56.82717
C         29.73122       48.86127       57.32401
O         29.43046       48.63865       58.61384
O         29.84728       47.91351       56.56701
H         30.29614       51.81139       54.04120
H         31.43582       52.58369       56.73346
H         32.06138       50.22724       56.94667
H         31.37536       49.85667       55.31312
H         29.10361       50.47065       56.07089
H         29.73684       50.96654       57.67727
N         33.09734       52.21163       53.87511
C         34.39252       52.51488       53.30893
H         35.15238       51.79486       53.67721
H         34.34317       52.44970       52.20042
H         34.68844       53.54952       53.58538
H         32.33814       52.00437       53.21883
Ca        28.39097       45.88099       58.56454
O         25.71141       46.31916       57.43764
H         24.86349       46.16544       56.95161
H         25.70690       47.28678       57.64910

Ca 1.0



