%chk=holoCaM.loop2.water2.frame318.chk
%nprocshared=20
%mem=10GB
%nosave
#b3lyp/svp scf=(tight,noincore,xqc) Test 
#IOP(5/87=12) Density=Current Pop=(MK,readradii) iop(6/33=2) iop(6/42=6)

holoCaM.loop2.water2.frame318 

   -2  1 
C         97.13945       30.44937       78.82151
C         95.83770       29.83055       78.39954
O         94.89589       30.54631       78.09649
H         97.93741       30.13528       78.11307
H         97.08046       31.55799       78.81208
H         97.41122       30.10513       79.84073
N         95.73822       28.47798       78.32314
C         94.57259       27.77525       77.79977
C         93.33831       27.94157       78.68428
O         93.42003       27.65166       79.86973
C         94.90157       26.27031       77.67936
C         93.91220       25.51655       76.83977
O         94.03304       24.18305       76.70680
O         93.04161       26.10567       76.22222
H         96.57210       27.92660       78.58127
H         94.38521       28.15898       76.77358
H         94.95985       25.82452       78.69594
H         95.88618       26.13345       77.18550
N         92.14414       28.33848       78.15195
C         90.90190       28.44290       78.91267
C         89.80029       27.50930       78.39578
O         88.74733       27.48777       79.01919
C         90.40363       29.89330       78.84791
H         92.10646       28.56100       77.15395
H         91.08165       28.18396       79.97811
H         91.17503       30.58370       79.24931
H         90.18509       30.18102       77.79536
H         89.47617       30.02099       79.44683
N         89.92731       26.76091       77.25393
C         88.81052       26.01099       76.66956
C         89.16651       24.62809       76.10999
O         88.25245       23.95405       75.65337
C         88.13399       26.88100       75.58526
C         89.01163       27.29298       74.42647
O         90.30609       26.93063       74.34883
O         88.53787       27.98662       73.54189
H         90.78191       26.85643       76.70169
H         88.03707       25.83061       77.44884
H         87.76290       27.80892       76.07214
H         87.25136       26.33693       75.18408
N         90.43435       24.12319       76.09913
C         90.76160       22.80053       75.57583
C         90.54028       22.61270       74.07832
O         90.71407       21.48999       73.62509
H         91.19448       24.65939       76.52337
H         90.14860       22.05040       76.12202
H         91.83014       22.57579       75.78405
N         90.14732       23.62346       73.24586
C         89.81984       23.40306       71.83458
C         90.98623       22.92141       70.96526
O         90.72453       22.49789       69.84775
C         89.17490       24.66312       71.20438
C         90.05988       25.88988       71.16308
N         89.62823       27.00646       70.53568
O         91.16091       25.88780       71.68964
H         90.00506       24.56068       73.63706
H         89.04743       22.60193       71.81221
H         88.25229       24.92508       71.76657
H         88.87787       24.41590       70.16239
H         88.70189       27.03406       70.08686
H         90.22869       27.84041       70.48173
N         92.28355       22.97827       71.37956
C         93.41015       22.48305       70.59695
C         94.35089       23.58045       70.12920
O         95.42375       23.24626       69.64741
H         92.49574       23.38785       72.29456
H         93.08201       21.92303       69.69421
H         93.96926       21.76992       71.23946
N         93.99269       24.89731       70.15502
C         94.82594       25.98584       69.65074
C         94.93210       27.09950       70.73416
O         93.72603       27.77981       70.72116
C         94.19546       26.53513       68.32496
C         94.29313       25.53271       67.17999
O         92.83083       26.84286       68.50734
H         93.05427       25.14313       70.48297
H         95.85501       25.62300       69.43384
H         94.75860       27.43571       67.98788
H         92.72273       27.82744       68.43823
H         93.83833       25.97640       66.26742
H         95.35664       25.29977       66.96629
H         93.74784       24.59767       67.42493
N         96.05888       28.02591       70.48570
C         95.95044       29.38047       71.08546
C         94.88078       30.23374       70.39677
O         94.87274       30.34408       69.17856
C         97.37180       30.04568       71.10598
C         98.12483       29.52865       72.36702
C         97.31814       31.58852       71.10045
C         99.56742       30.01286       72.51561
H         96.27758       28.11684       69.46747
H         95.62793       29.29993       72.14400
H         97.91894       29.75971       70.17960
H         98.14038       28.41776       72.35670
H         97.56871       29.85519       73.27619
H         96.77743       31.97662       71.98580
H         98.33586       32.02563       71.06771
H         96.82060       31.95178       70.17623
H        100.17954       29.67290       71.65610
H         99.62431       31.11635       72.60717
H         99.99404       29.59013       73.45077
N         93.97833       30.91676       71.17033
C         92.96504       31.82923       70.65663
C         93.48331       33.27544       70.68722
O         94.58226       33.52271       71.16226
C         91.68243       31.78360       71.54083
C         90.79228       30.55914       71.56552
O         91.09329       29.41810       72.21914
O         89.66431       30.66127       71.10924
H         94.09564       30.88405       72.19214
H         92.72650       31.58807       69.59736
H         91.01677       32.58750       71.17166
H         91.94212       32.04267       72.58853
N         92.71023       34.28693       70.18546
C         93.06060       35.70870       70.20736
C         93.25369       36.23021       71.63413
O         94.32643       36.76225       71.87787
C         92.02086       36.51659       69.38271
C         92.16528       38.02243       69.44544
C         93.36211       38.66136       69.07759
C         91.06899       38.80887       69.85103
C         93.45673       40.05832       69.11664
C         91.16619       40.20256       69.88063
C         92.35914       40.82745       69.51392
H         91.81302       34.02792       69.74820
H         94.03002       35.84390       69.67579
H         90.99270       36.24673       69.67646
H         92.11456       36.19814       68.32229
H         94.21909       38.08331       68.75897
H         90.13077       38.34654       70.13268
H         94.37944       40.54730       68.83286
H         90.31370       40.79801       70.18322
H         92.43075       41.90764       69.53518
N         92.32093       36.13319       72.63768
C         92.56179       36.58628       74.00614
C         93.82299       35.99171       74.60619
O         94.61362       36.71137       75.20018
C         91.34273       36.06207       74.78525
C         90.26525       36.09552       73.73416
C         91.00457       35.54028       72.52261
H         92.58448       37.69884       74.02449
H         91.47391       34.98569       75.04308
H         91.12238       36.61575       75.72322
H         89.33070       35.55407       73.99331
H         90.02033       37.16464       73.53645
H         91.10702       34.43712       72.57491
H         90.43206       35.84688       71.63674
N         94.05041       34.65495       74.48665
C         95.16201       33.95097       75.11754
C         96.51158       34.41665       74.60021
O         97.49760       34.25738       75.30638
C         95.05683       32.43274       74.87391
C         93.71722       31.83063       75.34119
C         93.62137       30.36947       75.04002
O         94.57767       29.74629       74.60701
O         92.44017       29.75020       75.19891
H         93.37157       34.11978       73.92980
H         95.10581       34.13350       76.21407
H         95.89149       31.91705       75.39936
H         95.16193       32.24693       73.78298
H         92.87119       32.29717       74.80663
H         93.56122       31.99747       76.42638
N         96.64556       34.93426       73.34878
C         97.92201       35.34258       72.80868
H         98.61636       34.47608       72.78084
H         97.78688       35.72113       71.77262
H         98.35515       36.15296       73.43138
H         95.82116       35.02614       72.74566
Ca        93.01972       28.42584       72.71386
O         93.92392       25.01125       73.57971
H         94.56298       24.29998       73.32277
H         93.23739       24.54328       74.11848
O         95.83892       26.97788       74.50875
H         95.86709       27.51612       73.67992
H         96.60321       27.30644       75.04456

Ca 1.0



