%chk=holoCaM-CaMKII.loop2.water2.frame341.chk
%nprocshared=20
%mem=10GB
%nosave
#b3lyp/svp scf=(tight,noincore,xqc) Test 
#IOP(5/87=12) Density=Current Pop=(MK,readradii) iop(6/33=2) iop(6/42=6)

holoCaM-CaMKII.loop2.water2.frame341 

   -2  1 
C         37.39584       55.84233       75.03225
C         38.41963       56.85880       75.46235
O         38.97109       57.54605       74.61610
H         36.56226       56.35306       74.50475
H         37.85715       55.09692       74.35321
H         36.96628       55.30273       75.90443
N         38.69916       57.02536       76.78281
C         39.60686       58.04214       77.30533
C         41.05506       57.78596       76.89029
O         41.53605       56.67933       77.09100
C         39.51315       58.04983       78.84733
C         40.17464       59.23815       79.48070
O         40.63254       60.13809       78.79833
O         40.20446       59.34358       80.82146
H         38.19130       56.43147       77.45748
H         39.25446       59.03494       76.94624
H         39.95666       57.11293       79.24825
H         38.44685       58.09190       79.15591
N         41.82286       58.78666       76.36213
C         43.22362       58.62217       75.96964
C         44.19627       59.50246       76.77204
O         45.38996       59.39650       76.52536
C         43.34927       58.94546       74.47491
H         41.39515       59.71227       76.23823
H         43.54280       57.56831       76.11962
H         43.06683       60.00359       74.28169
H         44.39041       58.78715       74.12104
H         42.67729       58.28776       73.88313
N         43.78005       60.40426       77.71347
C         44.68205       61.35612       78.38057
C         44.30976       61.68205       79.83714
O         45.00950       62.48737       80.43650
C         44.77335       62.65111       77.54320
C         43.46069       63.33968       77.32442
O         42.32192       62.83235       77.81977
O         43.41352       64.33354       76.61781
H         42.77419       60.52465       77.83489
H         45.71205       60.93739       78.40754
H         45.17698       62.38905       76.54092
H         45.48006       63.36450       78.01841
N         43.26488       61.09453       80.48894
C         42.93977       61.34562       81.88973
C         42.34489       62.71177       82.21897
O         42.05406       62.92123       83.38845
H         42.72528       60.36377       80.01583
H         43.84975       61.17733       82.50582
H         42.18268       60.59771       82.20871
N         42.11998       63.68586       81.28801
C         41.55627       65.00035       81.63188
C         40.05930       64.97444       82.01451
O         39.52167       66.03653       82.29711
C         41.81126       66.01456       80.48727
C         41.08974       65.71089       79.20522
N         41.22406       66.52760       78.13655
O         40.37685       64.72823       79.12568
H         42.41269       63.51484       80.31773
H         42.12997       65.40303       82.49644
H         42.90267       66.05010       80.27706
H         41.49751       67.02648       80.82394
H         41.82405       67.36342       78.18387
H         40.72369       66.32476       77.25984
N         39.32900       63.81993       82.07084
C         37.92982       63.75452       82.49047
C         36.89170       64.17104       81.44935
O         35.71439       64.07717       81.76524
H         39.79982       62.92289       81.90746
H         37.79705       64.33425       83.43058
H         37.69739       62.69405       82.72869
N         37.22388       64.61852       80.20445
C         36.25465       65.00884       79.17663
C         36.47856       64.26547       77.86271
O         37.57757       64.31391       77.33280
C         36.36646       66.52834       78.89388
C         35.80682       67.35637       80.04831
O         37.70212       66.90764       78.66569
H         38.21370       64.71954       79.97419
H         35.20965       64.81424       79.50467
H         35.73360       66.78798       78.01053
H         37.89537       66.76245       77.70404
H         34.73560       67.10405       80.20775
H         36.36997       67.16790       80.98503
H         35.87124       68.43619       79.79545
N         35.43537       63.65523       77.21995
C         35.51752       63.17750       75.83467
C         35.88048       64.34385       74.91990
O         35.27402       65.40190       75.00641
C         34.18574       62.48268       75.38018
C         34.07346       61.10459       76.09257
C         34.12618       62.29801       73.84554
C         32.84092       60.27798       75.71585
H         34.52067       63.61759       77.69482
H         36.31695       62.41395       75.74470
H         33.32243       63.13077       75.64887
H         34.05761       61.26368       77.19088
H         34.96699       60.48830       75.84430
H         34.94664       61.64818       73.49016
H         33.15809       61.86368       73.52757
H         34.18092       63.27561       73.32449
H         32.84555       59.33107       76.29621
H         31.91022       60.83714       75.94032
H         32.85744       59.99110       74.64363
N         36.83881       64.16423       73.96716
C         37.29540       65.18263       73.02490
C         36.82601       64.80214       71.63738
O         36.10169       63.82942       71.50840
C         38.83967       65.22734       73.00773
C         39.45055       65.22847       74.36318
O         39.20295       64.17203       75.14991
O         40.24203       66.09129       74.70587
H         37.25796       63.22948       73.87396
H         36.89391       66.18259       73.29768
H         39.20370       66.09373       72.41522
H         39.21695       64.29619       72.53174
N         37.21466       65.50445       70.53696
C         36.81554       65.09546       69.19899
C         37.34781       63.69463       68.85139
O         36.51424       62.87102       68.49552
C         37.18651       66.16466       68.14567
C         36.63777       65.81139       66.78567
C         35.24888       65.71859       66.58010
C         37.50822       65.57358       65.70935
C         34.74288       65.38896       65.32098
C         36.99696       65.24288       64.45126
C         35.61597       65.15034       64.25725
H         37.79717       66.34613       70.65254
H         35.70355       65.05479       69.19360
H         38.27543       66.31287       68.08131
H         36.75620       67.14390       68.44904
H         34.55582       65.90436       67.39102
H         38.58090       65.63848       65.84426
H         33.67321       65.31961       65.17117
H         37.67233       65.05789       63.62662
H         35.22191       64.89489       63.28272
N         38.66925       63.30415       68.92943
C         39.14738       61.98482       68.50451
C         38.64990       60.80331       69.32314
O         38.97227       59.67510       68.97980
C         40.67107       62.06984       68.65228
C         40.92609       63.55034       68.46076
C         39.79459       64.14123       69.29198
H         38.86580       61.86869       67.43364
H         40.95257       61.84477       69.70921
H         41.23787       61.38069       67.99045
H         41.94155       63.87914       68.76700
H         40.75902       63.80687       67.39021
H         40.01689       63.97669       70.36840
H         39.68053       65.21793       69.12023
N         37.88507       60.98918       70.43001
C         37.40401       59.91863       71.28885
C         35.93616       59.67825       70.98535
O         35.53796       58.52582       70.89210
C         37.65820       60.29393       72.76335
C         39.15393       60.56643       73.02375
C         39.44429       61.04480       74.41610
O         40.58167       61.37725       74.70355
O         38.47312       61.14592       75.34163
H         37.63252       61.94486       70.70537
H         37.94672       58.96667       71.09161
H         37.29753       59.48210       73.43286
H         37.08797       61.21123       72.99179
H         39.50433       61.36647       72.33832
H         39.74563       59.64605       72.82865
N         35.10287       60.71917       70.69417
C         33.73651       60.56631       70.24633
H         33.06314       61.13820       70.91616
H         33.65040       60.98244       69.21821
H         33.41484       59.50582       70.22055
H         35.45556       61.67943       70.72912
Ca        40.51986       63.56807       76.78910
O         36.87657       60.28987       78.33951
H         35.94039       59.97285       78.37178
H         36.97628       60.68346       77.43766
O         38.95575       62.08331       79.69546
H         38.59170       61.51179       80.41741
H         38.16309       62.34960       79.17170

Ca 1.0



