%chk=holoCaM-CaMKII.loop3.water1.frame246.chk
%nprocshared=20
%mem=10GB
%nosave
#b3lyp/svp scf=(tight,noincore,xqc) Test 
#IOP(5/87=12) Density=Current Pop=(MK,readradii) iop(6/33=2) iop(6/42=6)

holoCaM-CaMKII.loop3.water1.frame246 

   0  1 
C         91.44614       98.54008       57.39626
C         90.80080       97.33138       58.00046
O         91.50110       96.39184       58.35019
H         92.54730       98.40856       57.33318
H         91.04363       98.70824       56.37572
H         91.22700       99.42672       58.02752
N         89.44807       97.29249       58.14999
C         88.73808       96.17511       58.75298
C         87.84488       95.55575       57.69259
O         87.01298       96.25236       57.12738
C         87.97303       96.68936       59.98879
C         87.45504       95.58577       60.86813
O         86.63075       94.79058       60.45954
O         87.90505       95.47555       62.13110
H         88.89290       98.09934       57.82321
H         89.46322       95.41302       59.11066
H         87.14869       97.36994       59.68326
H         88.68613       97.27719       60.60775
N         88.01122       94.25263       57.33161
C         87.29249       93.61777       56.22788
C         85.77689       93.66468       56.42335
O         85.06728       93.85959       55.44688
C         87.80349       92.16476       56.04765
C         87.28111       91.48490       54.76892
C         87.81194       90.04672       54.64839
C         87.29203       89.36467       53.37309
N         87.72470       87.96802       53.30775
H         88.71883       93.69703       57.83783
H         87.54798       94.16641       55.29288
H         87.52954       91.56381       56.94217
H         88.91492       92.18946       55.97235
H         87.60791       92.07297       53.88211
H         86.17172       91.45282       54.78878
H         87.47279       89.46657       55.53374
H         88.92489       90.05042       54.63074
H         87.66720       89.91060       52.47840
H         86.18016       89.39621       53.36191
H         87.35454       87.53477       52.43071
H         88.76871       87.90894       53.30118
H         87.34644       87.43823       54.12678
N         85.21874       93.49630       57.65711
C         83.77762       93.46298       57.92233
C         83.32121       94.59127       58.86173
O         82.15670       94.59624       59.23593
C         83.41216       92.05383       58.45342
C         84.10358       91.73119       59.74090
O         83.82051       92.32595       60.76009
O         85.15783       90.90859       59.73059
H         85.85095       93.36252       58.45376
H         83.20408       93.58799       56.97835
H         83.74543       91.32203       57.68441
H         82.31645       91.93099       58.58310
N         84.15191       95.61489       59.22896
C         83.73454       96.75903       60.03506
C         83.45636       96.48841       61.50925
O         83.03778       97.42506       62.17557
H         85.09719       95.65551       58.83160
H         82.82503       97.19960       59.56927
H         84.53065       97.53341       59.99966
N         83.62569       95.26798       62.09699
C         83.19734       95.00110       63.47348
C         84.07393       95.62936       64.55901
O         83.63611       95.63447       65.70132
C         82.99894       93.48749       63.73559
C         84.23942       92.62744       63.67295
N         84.14923       91.30679       63.95142
O         85.31981       93.10366       63.36636
H         83.96211       94.49629       61.51912
H         82.18005       95.44251       63.57520
H         82.26796       93.09094       62.99778
H         82.55419       93.36709       64.74711
H         83.24441       90.88416       64.20577
H         84.98455       90.70525       63.92007
N         85.31487       96.14097       64.30752
C         86.13921       96.78058       65.33120
C         87.41399       96.01956       65.66607
O         88.21374       96.55889       66.41850
H         85.69870       96.08745       63.35471
H         85.58419       96.91370       66.28579
H         86.40187       97.79574       64.96436
N         87.65402       94.75608       65.20739
C         88.83903       93.96897       65.54531
C         89.52276       93.46881       64.28975
O         88.84688       92.91701       63.42985
C         88.48485       92.71827       66.36955
C         87.89149       93.00826       67.72318
C         88.65852       92.79863       68.88306
C         86.56245       93.44255       67.84852
C         88.10560       93.01767       70.14603
C         86.00670       93.64880       69.11527
C         86.77710       93.43408       70.26856
O         86.25115       93.61527       71.49636
H         86.94621       94.30344       64.62098
H         89.55900       94.55820       66.15735
H         89.44382       92.17142       66.52188
H         87.80907       92.03329       65.81208
H         89.68687       92.46487       68.81231
H         85.94857       93.59570       66.97002
H         88.70872       92.85174       71.03013
H         84.97516       93.96538       69.19924
H         85.32927       93.87806       71.62741
N         90.87940       93.53649       64.16512
C         91.60456       92.99254       63.01922
C         92.53836       91.85925       63.42375
O         93.10273       91.88727       64.50972
C         92.36060       94.10277       62.23980
C         93.43341       94.80062       63.11688
C         91.34459       95.10266       61.65977
C         94.25388       95.84834       62.36803
H         91.42154       93.96401       64.93060
H         90.88937       92.55119       62.30242
H         92.87401       93.61785       61.37843
H         94.14721       94.03571       63.48891
H         92.96283       95.29596       63.99116
H         90.80530       95.63915       62.46815
H         91.83933       95.84274       61.00182
H         90.60352       94.56560       61.03364
H         94.75163       95.39267       61.48661
H         93.61858       96.69680       62.04324
H         95.03056       96.25533       63.04911
N         92.76935       90.83920       62.54800
C         93.69746       89.73495       62.76780
C         94.76589       89.73783       61.68083
O         94.75604       90.62504       60.84102
C         92.91397       88.40774       62.75471
O         92.34068       88.16816       61.49502
H         92.26887       90.85065       61.64835
H         94.19776       89.82576       63.75654
H         92.13732       88.41533       63.55459
H         93.58170       87.55495       62.99527
H         91.39792       88.47073       61.53882
N         95.70595       88.75493       61.61093
C         96.68428       88.65323       60.52770
C         95.99607       88.53922       59.17658
O         96.37828       89.24489       58.25463
C         97.58289       87.43103       60.73641
H         95.70447       88.02458       62.33990
H         97.34510       89.54954       60.52889
H         98.33476       87.36865       59.91977
H         98.12539       87.52227       61.70121
H         96.98426       86.49522       60.74518
N         94.93428       87.69845       59.01285
C         94.19171       87.54632       57.76209
C         93.75775       88.88700       57.20174
O         94.01866       89.16935       56.04066
C         92.94500       86.67877       58.00595
H         94.61157       87.16992       59.83836
H         94.83061       87.03437       57.01008
H         92.37461       86.54271       57.06241
H         93.23803       85.67862       58.38838
H         92.27277       87.15395       58.75474
N         93.09386       89.76461       57.99372
C         92.59359       91.06320       57.54911
C         93.73554       91.93493       57.05809
O         93.69226       92.36493       55.91385
C         91.79809       91.71529       58.70204
C         90.56040       90.84537       59.00338
C         89.84020       91.22254       60.25356
O         89.22916       92.40628       60.35725
O         89.64529       90.37942       61.11473
H         92.94600       89.48153       58.97433
H         91.88382       90.91789       56.70237
H         91.45950       92.74006       58.43176
H         92.45743       91.79323       59.59051
H         90.83209       89.77716       59.11517
H         89.85793       90.90878       58.14410
N         94.81112       92.19611       57.85023
C         95.96372       92.95990       57.41616
H         96.86552       92.31205       57.45762
H         95.85746       93.33845       56.37800
H         96.11273       93.82408       58.09552
H         94.83676       91.81094       58.79924
Ca        87.07024       91.98797       60.13958
O         86.94073       89.68545       62.44361
H         87.73776       89.59421       63.02383
H         86.40711       88.87134       62.62503

Ca 1.0



