%chk=holoCaM.loop1.water2.frame125.chk
%nprocshared=20
%mem=10GB
%nosave
#b3lyp/svp scf=(tight,noincore,xqc) Test 
#IOP(5/87=12) Density=Current Pop=(MK,readradii) iop(6/33=2) iop(6/42=6)

holoCaM.loop1.water2.frame125 

   0  1 
C        104.02309       76.32715      -24.48604
C        105.16265       76.22064      -25.44973
O        104.94211       76.31699      -26.64706
H        103.06590       76.48576      -25.02671
H        103.95271       75.38854      -23.89769
H        104.19594       77.18121      -23.79855
N        106.42715       76.03124      -24.98427
C        107.58727       75.91112      -25.85802
C        107.46377       74.64997      -26.71732
O        107.64439       73.54941      -26.21607
C        108.85999       75.93445      -24.98777
C        110.12438       75.76466      -25.75570
O        110.95361       74.76424      -25.42402
O        110.42609       76.53767      -26.64718
H        106.56206       75.99573      -23.96113
H        107.61713       76.81036      -26.51582
H        108.80457       75.12480      -24.22721
H        108.90585       76.90775      -24.45025
N        107.04392       74.75854      -28.01098
C        106.74452       73.62406      -28.88619
C        107.98321       72.91549      -29.43403
O        107.81650       71.85447      -30.01986
C        105.92191       74.09347      -30.11776
C        104.55998       74.71665      -29.76501
C        103.82090       75.15493      -31.03842
C        102.43416       75.72734      -30.71480
N        101.73997       76.13671      -31.93624
H        106.80272       75.69866      -28.33382
H        106.13012       72.89667      -28.31082
H        105.72521       73.21934      -30.77737
H        106.52344       74.83114      -30.69527
H        104.69096       75.60703      -29.11812
H        103.95024       73.96394      -29.21993
H        103.69837       74.27975      -31.71321
H        104.42294       75.92907      -31.56450
H        102.53735       76.60585      -30.03939
H        101.82919       74.95173      -30.19442
H        101.63014       75.31972      -32.58039
H        100.79099       76.49841      -31.68732
H        102.27560       76.89522      -32.41778
N        109.22411       73.47951      -29.39589
C        110.39437       72.90969      -30.07854
C        111.56746       72.64764      -29.14575
O        112.58994       72.17455      -29.62366
C        110.78496       73.80616      -31.27914
C        110.73170       75.27521      -30.96584
O        109.90222       75.96522      -31.53771
O        111.49779       75.84041      -30.01484
H        109.33445       74.39722      -28.93968
H        110.16132       71.91202      -30.51245
H        110.02539       73.62520      -32.07353
H        111.76871       73.51185      -31.70375
N        111.48480       72.85018      -27.80452
C        112.54924       72.49339      -26.88251
C        113.80921       73.30170      -27.08068
O        114.87635       72.71474      -27.18751
H        110.61293       73.21333      -27.39702
H        112.76563       71.40505      -26.95575
H        112.19789       72.68120      -25.84769
N        113.76016       74.66235      -27.08635
C        114.94225       75.52156      -27.08143
C        114.96675       76.41940      -25.83710
O        115.87543       77.22736      -25.70835
C        115.02454       76.31892      -28.39926
C        113.92238       77.31015      -28.64182
O        113.91379       77.93693      -29.68798
O        112.95680       77.53090      -27.73089
H        112.83439       75.11152      -27.06340
H        115.86616       74.90379      -27.04834
H        115.02706       75.58884      -29.23858
H        115.98814       76.87231      -28.42802
N        114.01380       76.30593      -24.86393
C        113.96401       77.09054      -23.64422
C        113.69844       78.55402      -23.89437
O        114.37739       79.37334      -23.29859
H        113.27760       75.59652      -24.94964
H        114.88914       76.94234      -23.04548
H        113.11039       76.71643      -23.03680
N        112.66107       78.94100      -24.69204
C        112.22680       80.33154      -24.90594
C        110.87037       80.37913      -25.62615
O        110.40899       79.36781      -26.13762
C        113.23754       81.20651      -25.72109
C        114.55372       81.59319      -25.03539
O        113.50257       80.63053      -26.97217
H        112.10950       78.17589      -25.10643
H        112.05091       80.78415      -23.90504
H        112.74269       82.18563      -25.89759
H        114.04632       79.81509      -26.81319
H        114.35187       82.05314      -24.04425
H        115.24492       80.73594      -24.93982
H        115.08507       82.34011      -25.66266
N        110.15075       81.54162      -25.65787
C        108.83059       81.65749      -26.27479
C        108.84457       82.76837      -27.32675
O        109.03305       83.92871      -26.98921
C        107.75597       81.86356      -25.16154
C        107.67762       80.57417      -24.29073
C        106.38125       82.19330      -25.75676
C        106.63478       80.61040      -23.17139
H        110.52900       82.37225      -25.17661
H        108.56340       80.71245      -26.79713
H        108.05129       82.72986      -24.52837
H        108.66622       80.39338      -23.81870
H        107.44079       79.70071      -24.93959
H        106.42930       83.10947      -26.37845
H        106.00746       81.34607      -26.36013
H        105.65116       82.41429      -24.95396
H        105.60551       80.67929      -23.58031
H        106.68735       79.66293      -22.59397
H        106.82550       81.46215      -22.48706
N        108.65649       82.45060      -28.64126
C        108.62722       83.40783      -29.75218
C        107.30519       84.17470      -29.78265
O        106.47561       83.97674      -28.91330
C        108.80766       82.64983      -31.10466
C        110.13879       81.90295      -31.17234
O        107.75358       81.74477      -31.29506
H        108.55400       81.45475      -28.86976
H        109.47919       84.11713      -29.66108
H        108.81780       83.38674      -31.93613
H        107.75425       81.49052      -32.25461
H        110.16823       81.10239      -30.41182
H        110.25100       81.42939      -32.16943
H        110.98565       82.60373      -31.01645
N        107.01852       85.02819      -30.80807
C        105.70452       85.64360      -31.01017
C        104.62875       84.57144      -31.17761
O        103.61706       84.62287      -30.49284
C        105.70557       86.55941      -32.26793
C        106.62939       87.76965      -32.09690
O        106.09209       85.83245      -33.40792
H        107.74831       85.20400      -31.51160
H        105.44271       86.27967      -30.13480
H        104.66584       86.94303      -32.40152
H        105.75226       86.32519      -34.19987
H        106.31257       88.37012      -31.21864
H        107.68540       87.45832      -31.96201
H        106.56973       88.41312      -33.00053
N        104.80160       83.56571      -32.07962
C        103.82164       82.51662      -32.36754
C        103.46308       81.73656      -31.12068
O        102.28932       81.59104      -30.80996
C        104.40751       81.52540      -33.40634
C        104.63376       82.17693      -34.77885
C        105.35623       81.21675      -35.73441
C        105.50615       81.78782      -37.15557
N        106.28385       83.02902      -37.19087
H        105.70247       83.53888      -32.57766
H        102.89356       82.96322      -32.78849
H        103.71218       80.66719      -33.54532
H        105.37075       81.12306      -33.02106
H        105.25485       83.08553      -34.66852
H        103.64768       82.46797      -35.20068
H        104.77889       80.26952      -35.80833
H        106.36298       80.97712      -35.32418
H        104.49932       81.96771      -37.59230
H        106.01965       81.02390      -37.78051
H        105.77710       83.79988      -36.70075
H        107.22386       82.88289      -36.75671
H        106.41211       83.31816      -38.18727
N        104.45153       81.17861      -30.38081
C        104.24031       80.31374      -29.22736
C        103.46299       81.06540      -28.15853
O        102.41749       80.58749      -27.74096
C        105.60862       79.74476      -28.75337
C        106.24806       78.92384      -29.90339
C        107.58095       78.30532      -29.61315
O        107.73831       77.12161      -29.84629
O        108.65088       79.02645      -29.23160
H        105.41196       81.38940      -30.67202
H        103.63033       79.43338      -29.53365
H        105.45424       79.08595      -27.87047
H        106.28903       80.57404      -28.47026
H        106.41831       79.55273      -30.79288
H        105.54030       78.11847      -30.20284
N        103.87009       82.29452      -27.74408
C        103.12300       83.13591      -26.82943
H        102.19368       82.65062      -26.46704
H        103.75121       83.39731      -25.95549
H        102.84490       84.07744      -27.35042
H        104.73210       82.67776      -28.13738
Ca       110.49356       77.71933      -29.24829
O        112.34515       80.17407      -29.56236
H        111.83621       80.66537      -28.86995
H        112.79888       80.87665      -30.09139
O        110.95374       78.71654      -32.08575
H        111.77504       78.21148      -31.86051
H        111.17828       79.19439      -32.92265

Ca 1.0



