%chk=holoCaM-CaMKII.loop3.water3.frame250.chk
%nprocshared=20
%mem=10GB
%nosave
#b3lyp/svp scf=(tight,noincore,xqc) Test 
#IOP(5/87=12) Density=Current Pop=(MK,readradii) iop(6/33=2) iop(6/42=6)

holoCaM-CaMKII.loop3.water3.frame250 

   0  1 
C         83.85266        9.26208       57.59691
C         82.52927        9.40656       58.27902
O         81.58776        8.71569       57.91385
H         84.61656        8.94907       58.33971
H         83.79768        8.49498       56.79559
H         84.14840       10.23384       57.15125
N         82.39080       10.28144       59.31223
C         81.14293       10.41871       60.04425
C         80.05645       10.97024       59.13756
O         80.20886       12.05182       58.58776
C         81.35223       11.26163       61.31033
C         80.17785       11.22202       62.24493
O         79.13208       10.67065       61.95129
O         80.30332       11.76845       63.45411
H         83.21589       10.82455       59.61254
H         80.86299        9.40618       60.39542
H         81.60883       12.31367       61.05916
H         82.20578       10.81896       61.86955
N         78.94340       10.22320       58.90857
C         77.90658       10.55626       57.93652
C         77.20152       11.88051       58.22085
O         76.69703       12.48461       57.28520
C         76.93724        9.35658       57.85512
C         75.89004        9.43619       56.74453
C         75.24035        8.05649       56.54794
C         74.20617        8.07903       55.41876
N         73.72682        6.72814       55.12524
H         78.87081        9.32236       59.40419
H         78.41419       10.65132       56.95143
H         76.43096        9.19896       58.83347
H         77.57455        8.46602       57.64876
H         76.39280        9.71402       55.79354
H         75.12972       10.20707       56.99579
H         74.75898        7.70909       57.48934
H         76.04123        7.33215       56.27653
H         74.66875        8.49902       54.49830
H         73.35304        8.72858       55.71486
H         73.30226        6.29552       55.97716
H         73.00694        6.77713       54.36885
H         74.52186        6.13555       54.78971
N         77.10747       12.37617       59.48463
C         76.46840       13.65442       59.82617
C         77.31321       14.50136       60.79906
O         76.86137       15.58115       61.15689
C         75.03145       13.44181       60.37743
C         74.97289       12.59813       61.61133
O         76.06599       11.92167       61.97780
O         73.94372       12.51166       62.26038
H         77.48631       11.78790       60.23406
H         76.33227       14.26653       58.90719
H         74.38041       12.97948       59.60507
H         74.60815       14.44327       60.61397
N         78.55528       14.12118       61.22968
C         79.41626       14.97953       62.03396
C         79.10373       15.07584       63.52240
O         79.78333       15.86551       64.16423
H         78.97872       13.26181       60.86272
H         79.41604       15.99844       61.58488
H         80.46003       14.60418       61.96429
N         78.14458       14.33772       64.16796
C         77.86669       14.53787       65.60249
C         79.01717       14.12672       66.53897
O         78.90675       14.36713       67.73275
C         76.50031       13.91785       66.02142
C         76.39484       12.40674       66.34181
N         76.28741       12.13541       67.76777
O         77.42774       11.65302       65.80800
H         77.56032       13.68857       63.62191
H         77.71159       15.63431       65.71903
H         75.76694       14.15376       65.22013
H         76.13039       14.46117       66.91763
H         75.38833       12.54547       68.10607
H         76.20068       11.09932       67.88702
N         80.13800       13.49767       66.07316
C         81.28196       13.09217       66.88089
C         81.43751       11.57785       66.99326
O         82.41121       11.14081       67.58640
H         80.20569       13.29714       65.07870
H         81.20496       13.48910       67.91497
H         82.19598       13.52663       66.41995
N         80.47224       10.72561       66.54045
C         80.43904        9.28812       66.80808
C         80.06519        8.51166       65.56451
O         79.15524        8.93235       64.86473
C         79.34403        9.00878       67.85276
C         79.67124        9.66208       69.16688
C         80.44385        8.98135       70.12014
C         79.22266       10.96202       69.44302
C         80.75901        9.59332       71.33603
C         79.53867       11.57346       70.65723
C         80.30867       10.88975       71.60942
O         80.62315       11.46808       72.78534
H         79.64631       11.12627       66.09534
H         81.39824        8.91312       67.22841
H         79.24842        7.91087       68.01269
H         78.35317        9.36126       67.48993
H         80.80295        7.97905       69.91990
H         78.63675       11.50326       68.71461
H         81.35574        9.05944       72.06447
H         79.18673       12.57803       70.85395
H         80.33321       12.36360       73.01009
N         80.64259        7.30021       65.29834
C         80.20482        6.45944       64.18374
C         79.58108        5.15453       64.66530
O         79.78243        4.74594       65.79746
C         81.34415        6.22064       63.15383
C         82.55402        5.47602       63.77670
C         81.75523        7.56741       62.54012
C         83.65100        5.13806       62.76489
H         81.37443        6.94706       65.93044
H         79.38796        6.97531       63.64445
H         80.93026        5.59325       62.33231
H         82.20152        4.51695       64.21278
H         83.00791        6.08289       64.58835
H         80.85512        8.06162       62.13052
H         82.20742        8.23589       63.30278
H         82.46824        7.43525       61.70197
H         84.10817        6.05566       62.34212
H         84.45811        4.57012       63.27396
H         83.24062        4.51510       61.94247
N         78.74207        4.48911       63.81940
C         78.04742        3.23863       64.11209
C         78.36644        2.21666       63.02379
O         79.15075        2.51417       62.14245
C         76.53270        3.51844       64.16339
O         76.07594        3.98982       62.92498
H         78.55064        4.91772       62.90825
H         78.35352        2.83245       65.09969
H         76.33344        4.28130       64.94858
H         75.98600        2.58787       64.43267
H         75.08929        4.06403       63.00045
N         77.76727        0.99043       63.00988
C         77.96678        0.02170       61.93070
C         77.47643        0.56929       60.60000
O         78.22950        0.54988       59.63538
C         77.21340       -1.27641       62.23758
H         77.13156        0.74480       63.78118
H         79.04663       -0.23712       61.85537
H         77.58807       -1.71394       63.18645
H         76.12209       -1.09254       62.33204
H         77.38312       -2.01298       61.42210
N         76.22014        1.08728       60.48621
C         75.65609        1.61734       59.24558
C         76.56288        2.65655       58.61698
O         76.84170        2.56494       57.43011
C         74.27650        2.23264       59.52036
H         75.64051        1.12579       61.34023
H         75.51354        0.78800       58.51771
H         73.59421        1.46289       59.94053
H         74.35347        3.07192       60.24561
H         73.82863        2.61551       58.57815
N         77.08943        3.65379       59.37463
C         77.98686        4.68044       58.85000
C         79.21919        4.03558       58.23325
O         79.48194        4.26887       57.06181
C         78.37382        5.66739       59.97147
C         77.12780        6.40610       60.50877
C         77.44707        7.29155       61.67073
O         76.82544        7.10594       62.85114
O         78.25527        8.19241       61.55285
H         76.85874        3.65182       60.37819
H         77.46042        5.26416       58.06159
H         79.09443        6.42016       59.58107
H         78.87973        5.10532       60.77916
H         76.35189        5.69429       60.84913
H         76.68799        7.01394       59.69353
N         79.99124        3.17607       58.95411
C         81.13985        2.47231       58.42025
H         82.03661        2.71266       59.02825
H         80.95524        1.37784       58.47841
H         81.34514        2.73480       57.36189
H         79.73843        2.98061       59.92653
Ca        76.59477       10.98337       63.87584
O         76.36377        8.37458       65.64775
H         76.11838        8.57473       66.58557
H         76.67421        7.43454       65.66591
O         73.83832       10.20324       65.02743
H         73.87604       10.81380       64.25003
H         73.58426        9.32869       64.63955
O         74.68102        9.21762       61.48114
H         73.88980        9.78198       61.66953
H         74.50093        8.82956       60.58845

Ca 1.0



