%chk=holoCaM-CaMKII.loop4.water1.frame423.chk
%nprocshared=20
%mem=10GB
%nosave
#b3lyp/svp scf=(tight,noincore,xqc) Test 
#IOP(5/87=12) Density=Current Pop=(MK,readradii) iop(6/33=2) iop(6/42=6)

holoCaM-CaMKII.loop4.water1.frame423 

   -3  1 
C         67.33473       74.24858       49.81161
C         66.85929       74.20022       51.23367
O         66.34779       75.18627       51.74109
H         68.42452       74.03079       49.78181
H         66.80152       73.47825       49.21481
H         67.15571       75.24664       49.36220
N         67.01910       73.05396       51.94086
C         66.62862       72.87664       53.33552
C         67.34856       73.87939       54.24156
O         68.56285       73.99411       54.15640
C         66.93397       71.41872       53.72260
C         66.63911       71.13606       55.15091
O         67.52347       70.70120       55.86411
O         65.41222       71.36007       55.65130
H         67.45632       72.25791       51.44732
H         65.52876       73.02001       53.43543
H         68.00349       71.18507       53.52316
H         66.30740       70.74377       53.09801
N         66.64059       74.62138       55.15163
C         67.21646       75.66215       56.00801
C         67.27617       75.24778       57.48406
O         67.76152       76.04329       58.27725
C         66.43499       77.02023       55.85301
C         65.03067       76.98878       56.52463
C         66.33708       77.42831       54.37052
C         64.29206       78.32892       56.53845
H         65.64083       74.43215       55.24825
H         68.26700       75.84643       55.69354
H         67.02674       77.79832       56.38388
H         65.13005       76.67940       57.58569
H         64.38886       76.26320       56.01928
H         65.70345       76.70980       53.80799
H         65.89235       78.43779       54.25781
H         67.34581       77.46001       53.90986
H         64.05761       78.68014       55.51373
H         63.32516       78.20456       57.07343
H         64.89194       79.09554       57.07144
N         66.81137       74.04184       57.93243
C         66.81625       73.63681       59.34325
C         67.68996       72.42044       59.60214
O         67.76000       71.99237       60.74673
C         65.38492       73.24276       59.76095
C         64.43543       74.39373       59.79483
O         64.58505       75.28752       60.61146
O         63.38893       74.43445       58.95812
H         66.42405       73.37088       57.25336
H         67.19485       74.45209       59.99775
H         65.37482       72.80543       60.78281
H         65.01652       72.45900       59.06156
N         68.34073       71.77113       58.60298
C         69.01745       70.50429       58.80468
C         68.04772       69.44115       59.28508
O         68.35776       68.73784       60.23574
H         68.31857       72.14595       57.64675
H         69.87090       70.61509       59.50856
H         69.42362       70.17150       57.82503
N         66.84814       69.27468       58.65707
C         65.89745       68.20872       58.95068
C         65.67941       67.32231       57.71981
O         64.87540       66.40373       57.79333
C         64.58041       68.79252       59.52232
C         63.77359       69.68625       58.61872
O         62.63205       70.22910       59.08199
O         64.12314       69.92333       57.47795
H         66.59669       69.93343       57.91151
H         66.29901       67.54697       59.74922
H         64.83218       69.37397       60.43574
H         63.92309       67.95006       59.82797
N         66.41369       67.49526       56.57643
C         66.34650       66.61558       55.42211
C         65.10314       66.74449       54.56995
O         65.03900       66.01998       53.58570
H         67.14186       68.21892       56.53698
H         66.47348       65.56357       55.75830
H         67.20076       66.85637       54.75191
N         64.08528       67.61343       54.84617
C         62.88961       67.71494       54.00835
C         62.66443       69.13637       53.50781
O         63.29203       70.06313       54.00436
C         61.69087       67.05443       54.72876
C         61.32612       67.63239       56.10976
C         60.54830       68.90954       56.01962
N         59.31033       68.90000       55.47349
O         61.00859       69.94347       56.47908
H         64.14419       68.20439       55.68334
H         63.04137       67.11171       53.08659
H         62.00027       66.00113       54.90664
H         60.79880       67.01872       54.06723
H         62.23468       67.75098       56.73424
H         60.67162       66.90762       56.64013
H         58.89814       68.02667       55.11447
H         58.74308       69.75268       55.43683
N         61.86818       69.34909       52.41840
C         61.72565       70.63594       51.73719
C         60.24552       70.98964       51.60407
O         59.46156       70.16469       51.15453
C         62.44554       70.58506       50.35666
C         62.32003       71.91743       49.59428
C         63.94794       70.28874       50.54371
H         61.40960       68.53206       51.98504
H         62.24277       71.43816       52.29947
H         61.99423       69.78224       49.73454
H         62.79504       72.73939       50.16750
H         62.83276       71.84965       48.61086
H         61.25885       72.17296       49.40116
H         64.42975       71.08112       51.16032
H         64.10607       69.31094       51.04223
H         64.46425       70.25394       49.56071
N         59.81652       72.24013       51.92873
C         58.44326       72.72665       51.85352
C         58.33984       73.75952       50.75047
O         59.31878       73.98705       50.05752
C         58.09034       73.39378       53.20059
C         58.13377       72.41616       54.33739
N         59.07991       72.52784       55.29612
O         57.30350       71.52206       54.39662
H         60.51863       72.93236       52.20325
H         57.72731       71.90614       51.62727
H         57.07925       73.85156       53.19155
H         58.81960       74.21611       53.37927
H         59.79300       73.26630       55.23770
H         59.11372       71.87414       56.09005
N         57.17747       74.42896       50.52200
C         57.05065       75.47614       49.51495
C         57.94543       76.66414       49.85452
O         58.69792       77.10462       48.99857
C         55.58399       75.93976       49.40865
C         55.38669       76.87889       48.24199
C         55.59430       76.42320       46.92700
C         54.99191       78.20940       48.45103
C         55.41382       77.28401       45.84244
C         54.81429       79.07062       47.36312
C         55.02474       78.60948       46.05466
O         54.85557       79.42764       44.99672
H         56.34906       74.18372       51.08635
H         57.34168       75.04855       48.53008
H         55.28162       76.41708       50.36680
H         54.92223       75.06068       49.24876
H         55.89168       75.39909       46.73844
H         54.82727       78.58212       49.45412
H         55.57612       76.91850       44.83593
H         54.51329       80.09539       47.53826
H         54.58630       80.35143       45.09855
N         57.91371       77.22397       51.10205
C         58.73194       78.37616       51.50398
C         60.24035       78.13825       51.41028
O         60.99098       79.09315       51.55668
C         58.36260       78.81588       52.94009
C         58.75628       77.77154       54.00517
C         58.22899       78.15383       55.35614
O         58.60207       79.31337       55.92958
O         57.45906       77.41024       55.94366
H         57.25362       76.82140       51.78318
H         58.47452       79.20778       50.81088
H         57.26443       78.98834       52.97142
H         58.86412       79.77995       53.18093
H         59.86269       77.68694       54.06168
H         58.34969       76.77396       53.73846
N         60.75128       76.90312       51.15647
C         62.16707       76.61077       50.97845
C         62.45883       76.50658       49.49029
O         63.47514       77.02576       49.05166
C         62.54083       75.32200       51.74657
C         62.21753       75.47495       53.23805
C         62.53712       74.27728       54.08499
O         63.32826       74.45614       55.13561
O         61.99394       73.20351       53.92847
H         60.10670       76.11306       51.05700
H         62.79779       77.43687       51.38003
H         63.62511       75.11192       51.61779
H         61.96180       74.47408       51.33679
H         61.13507       75.67643       53.36732
H         62.78364       76.34771       53.63571
N         61.54656       75.95522       48.63869
C         61.66851       75.94634       47.19860
H         60.83056       76.53782       46.76685
H         62.62391       76.38689       46.85125
H         61.58659       74.90306       46.83150
H         60.68028       75.56257       49.00982
Ca        63.37632       73.28468       57.03113
O         60.45985       73.76775       57.63963
H         60.78270       73.96776       58.55224
H         60.77497       74.52773       57.08764

Ca 1.0



