%chk=holoCaM-CaMKII.loop3.water2.frame22.chk
%nprocshared=20
%mem=10GB
%nosave
#b3lyp/svp scf=(tight,noincore,xqc) Test 
#IOP(5/87=12) Density=Current Pop=(MK,readradii) iop(6/33=2) iop(6/42=6)

holoCaM-CaMKII.loop3.water2.frame22 

   0  1 
C         19.16501       52.77530       22.15231
C         18.00410       53.59310       22.62860
O         17.01976       53.03420       23.08957
H         20.06871       53.04141       22.73935
H         18.96174       51.69013       22.26734
H         19.35255       52.99308       21.07893
N         18.05263       54.94633       22.51281
C         16.97454       55.83736       22.90707
C         16.41652       56.43279       21.63257
O         17.03072       57.32277       21.05955
C         17.55875       56.88598       23.87459
C         16.61939       57.94652       24.35041
O         17.10228       58.90799       25.15369
O         15.44761       57.96577       24.01938
H         18.89017       55.36891       22.08129
H         16.16387       55.27393       23.42359
H         18.40264       57.40407       23.37122
H         17.95660       56.36294       24.77078
N         15.33314       55.85060       21.04365
C         14.92458       56.16171       19.67913
C         14.03478       57.39289       19.57914
O         13.82463       57.83428       18.45756
C         14.29708       54.91635       19.01009
C         15.34358       53.78427       18.88388
C         14.79856       52.47633       18.28567
C         14.16221       52.60208       16.88912
N         15.08835       53.14289       15.89266
H         14.92387       55.02376       21.50321
H         15.83898       56.39832       19.08815
H         13.95423       55.18935       17.99002
H         13.41848       54.57381       19.59955
H         15.75333       53.53143       19.88541
H         16.19348       54.14469       18.26497
H         14.03835       52.05394       18.97787
H         15.64146       51.75178       18.22887
H         13.25318       53.23842       16.93867
H         13.83903       51.58644       16.56902
H         15.95256       52.55660       15.84153
H         14.61892       53.13656       14.95828
H         15.33853       54.13108       16.12171
N         13.50180       58.02376       20.67148
C         12.78135       59.29796       20.57320
C         13.45989       60.40186       21.39284
O         12.94757       61.51236       21.41249
C         11.27796       59.12960       20.89186
C         10.91892       58.81444       22.31262
O         11.85786       58.72025       23.26360
O          9.74503       58.67648       22.61582
H         13.62864       57.60826       21.60578
H         12.79320       59.65678       19.52079
H         10.87132       58.33011       20.23429
H         10.75829       60.07741       20.62987
N         14.65512       60.19522       22.02548
C         15.42243       61.25030       22.66995
C         14.89007       61.77545       23.99119
O         15.51331       62.69629       24.50157
H         15.12220       59.28428       21.94132
H         15.52943       62.09325       21.95318
H         16.44484       60.86511       22.87851
N         13.78957       61.27356       24.62914
C         13.30784       61.84696       25.89192
C         14.29672       61.71783       27.05610
O         14.06714       62.35185       28.07661
C         11.92229       61.28678       26.29870
C         11.86623       59.80557       26.59351
N         10.71339       59.25418       27.03617
O         12.84697       59.09812       26.43840
H         13.26465       60.50708       24.19222
H         13.16278       62.93507       25.70973
H         11.19281       61.50368       25.48966
H         11.58839       61.82778       27.21110
H          9.87409       59.83437       27.17895
H         10.66138       58.24779       27.24892
N         15.39931       60.91898       26.98661
C         16.39607       60.81033       28.04439
C         16.46083       59.42909       28.65992
O         17.30502       59.22988       29.52291
H         15.54546       60.35490       26.14526
H         16.19562       61.52754       28.86907
H         17.38836       61.06147       27.61275
N         15.58330       58.44258       28.31755
C         15.54700       57.13690       28.96211
C         15.63471       56.02041       27.94150
O         15.48411       56.26004       26.75076
C         14.20203       57.01216       29.71300
C         14.04521       58.10129       30.74616
C         13.11564       59.13830       30.55154
C         14.83394       58.09570       31.90740
C         12.98660       60.15764       31.49928
C         14.69420       59.10960       32.86012
C         13.77208       60.14695       32.65655
O         13.63298       61.13562       33.56276
H         14.86155       58.63246       27.61529
H         16.39266       57.02707       29.67593
H         14.08816       56.02180       30.20552
H         13.38886       57.09800       28.95657
H         12.50145       59.16866       29.65996
H         15.55051       57.30198       32.07750
H         12.27597       60.95770       31.33275
H         15.30430       59.08901       33.75422
H         14.15630       61.16553       34.37642
N         15.83590       54.74615       28.37023
C         15.74249       53.57030       27.51672
C         14.67943       52.68567       28.12857
O         14.79705       52.34181       29.29845
C         17.09268       52.80138       27.42039
C         18.20602       53.71297       26.84694
C         16.91337       51.54334       26.53349
C         19.59223       53.06091       26.87538
H         16.01896       54.59499       29.37543
H         15.45305       53.85260       26.47820
H         17.39044       52.48183       28.44353
H         18.27531       54.63433       27.46253
H         17.95853       54.01028       25.80404
H         17.83761       50.93769       26.47663
H         16.13644       50.86954       26.94666
H         16.61013       51.83072       25.50325
H         20.34891       53.78086       26.50056
H         19.85804       52.77819       27.91659
H         19.64306       52.16217       26.22911
N         13.64079       52.23440       27.38177
C         12.63530       51.32290       27.89844
C         12.87549       49.95054       27.32082
O         13.71791       49.80183       26.44808
C         11.22614       51.84116       27.56279
O         11.04689       51.90427       26.16916
H         13.61904       52.46400       26.38329
H         12.72639       51.23232       29.00250
H         11.08946       52.84368       28.03332
H         10.45095       51.16899       27.98695
H         10.75595       52.82547       25.94169
N         12.19130       48.87726       27.79033
C         12.37754       47.54305       27.23730
C         11.93271       47.50234       25.78629
O         12.55320       46.80959       24.99258
C         11.59863       46.51460       28.05425
H         11.52391       49.01750       28.56537
H         13.45355       47.26192       27.30858
H         10.51141       46.73736       28.03509
H         11.77483       45.49611       27.64750
H         11.95441       46.53429       29.10751
N         10.88079       48.26449       25.36828
C         10.40041       48.30699       23.99211
C         11.50780       48.69789       23.03049
O         11.77038       47.96282       22.08930
C          9.24272       49.31297       23.88060
H         10.40224       48.85663       26.06508
H         10.01056       47.30386       23.71227
H          9.57499       50.33693       24.16037
H          8.84947       49.34003       22.84284
H          8.41655       49.02142       24.56361
N         12.19914       49.85285       23.21828
C         13.26111       50.32712       22.33173
C         14.40143       49.32426       22.29154
O         14.72084       48.84323       21.21325
C         13.74030       51.71607       22.80992
C         12.61120       52.76118       22.65420
C         12.86890       53.98625       23.47161
O         12.89404       55.21383       22.93865
O         12.97914       53.88353       24.67793
H         11.95179       50.41829       24.04435
H         12.86146       50.44673       21.29908
H         14.62422       52.06414       22.23203
H         14.04174       51.61931       23.87711
H         11.64995       52.36309       23.03635
H         12.46924       53.00552       21.57903
N         15.03808       48.94004       23.43265
C         16.10141       47.95542       23.46922
H         17.01115       48.41032       23.91303
H         15.78505       47.09857       24.10168
H         16.35696       47.56678       22.46111
H         14.74668       49.34789       24.32772
Ca        13.07707       56.74369       24.58542
O         11.29352       55.57766       27.03884
H         11.31345       55.81560       27.99960
H         10.36646       55.77838       26.75507
O         10.05780       55.81868       23.91685
H          9.26064       55.26820       24.11947
H          9.90824       56.66347       24.41101

Ca 1.0



