%chk=holoCaM-CaMKII.loop2.water1.frame137.chk
%nprocshared=20
%mem=10GB
%nosave
#b3lyp/svp scf=(tight,noincore,xqc) Test 
#IOP(5/87=12) Density=Current Pop=(MK,readradii) iop(6/33=2) iop(6/42=6)

holoCaM-CaMKII.loop2.water1.frame137 

   -2  1 
C         13.96743       46.92870       66.09184
C         12.47651       46.80834       66.04724
O         11.95635       46.07835       65.21480
H         14.43612       46.30344       65.30292
H         14.25843       47.98822       65.93640
H         14.33344       46.58942       67.08391
N         11.71767       47.49651       66.94204
C         10.26844       47.39035       66.98101
C          9.65788       47.92372       65.69331
O          9.77744       49.10971       65.41710
C          9.72473       48.14829       68.20834
C          8.24850       47.99655       68.39391
O          7.57136       47.37443       67.59803
O          7.66544       48.54307       69.46575
H         12.19894       48.08406       67.64154
H         10.01277       46.31403       67.11355
H          9.96964       49.23055       68.13347
H         10.21372       47.74481       69.12003
N          9.00498       47.08010       64.84492
C          8.41201       47.52082       63.58984
C          7.19108       48.39667       63.84366
O          7.19947       49.55727       63.45956
C          8.04013       46.30509       62.72375
H          8.97805       46.07819       65.08085
H          9.17978       48.08895       63.01774
H          7.29469       45.65266       63.22242
H          7.62796       46.63501       61.74734
H          8.94747       45.69209       62.53084
N          6.08609       47.88175       64.45824
C          4.83879       48.62639       64.67383
C          4.92813       49.72468       65.74101
O          3.93027       50.40593       65.93443
C          3.67085       47.64418       64.97392
C          3.88514       46.76870       66.17938
O          5.00256       46.91075       66.90789
O          3.11177       45.85542       66.41888
H          6.11337       46.88280       64.70727
H          4.56507       49.11701       63.71308
H          3.58061       46.96896       64.09324
H          2.71125       48.19484       65.07310
N          6.06847       49.99234       66.44612
C          6.17658       51.10723       67.38275
C          5.38666       50.96921       68.67918
O          5.38244       51.92876       69.43776
H          6.92290       49.45439       66.25736
H          5.85687       52.03378       66.85615
H          7.24242       51.24014       67.66794
N          4.70254       49.83714       69.01874
C          3.87993       49.72307       70.23181
C          4.66669       49.65222       71.55638
O          4.03913       49.47230       72.59093
C          2.91966       48.51746       70.10669
C          3.57286       47.17343       70.30119
N          3.11290       46.32505       71.24874
O          4.50980       46.83878       69.59811
H          4.69921       49.05622       68.35066
H          3.20860       50.61025       70.25974
H          2.42955       48.55093       69.10884
H          2.11479       48.63019       70.86487
H          2.31970       46.58036       71.85425
H          3.53776       45.39757       71.36622
N          6.02161       49.79640       71.61340
C          6.80206       49.77544       72.84232
C          7.28304       48.39857       73.28060
O          8.07913       48.36613       74.20949
H          6.52790       50.06544       70.76809
H          6.27391       50.31250       73.66057
H          7.73128       50.35320       72.64199
N          6.87724       47.22955       72.69612
C          7.40716       45.91264       73.08520
C          7.92150       45.14221       71.86352
O          7.83816       45.65638       70.75505
C          6.34365       45.11547       73.88004
C          6.00157       45.81122       75.20401
O          5.18312       44.95898       73.11455
H          6.15371       47.26187       71.96252
H          8.28209       46.02868       73.76284
H          6.76475       44.11679       74.13357
H          4.66018       44.22322       73.52860
H          5.55825       46.81323       75.02697
H          5.27191       45.19867       75.77484
H          6.91703       45.92341       75.82439
N          8.49520       43.90473       72.00270
C          9.08165       43.13946       70.89903
C          8.35147       41.80565       70.71115
O          8.40853       40.95672       71.59067
C         10.60376       42.91058       71.18850
C         11.40296       44.23696       71.30038
C         11.28048       41.96508       70.17862
C         11.48405       45.05492       70.00577
H          8.55847       43.49141       72.94543
H          8.98709       43.70150       69.94793
H         10.68295       42.40885       72.17979
H         12.44287       43.99687       71.61502
H         10.95961       44.87243       72.09611
H         10.81888       40.96121       70.21892
H         11.20588       42.34917       69.14335
H         12.35172       41.82821       70.43969
H         12.08839       45.96831       70.18726
H         11.98120       44.48222       69.19624
H         10.47835       45.36959       69.66689
N          7.66796       41.55231       69.55345
C          7.05445       40.26542       69.20789
C          8.12326       39.22852       68.87649
O          9.29388       39.56452       68.87181
C          6.16397       40.42310       67.95086
C          5.00773       41.34947       68.16927
O          4.07571       41.05161       69.09425
O          4.88216       42.35088       67.48294
H          7.58488       42.31445       68.87309
H          6.42497       39.91477       70.05473
H          5.72152       39.44748       67.66972
H          6.78720       40.78744       67.10147
N          7.78858       37.94262       68.55718
C          8.77581       36.95101       68.13257
C          9.40944       37.32876       66.78431
O         10.62873       37.41442       66.76130
C          8.17679       35.52550       68.11706
C          9.18617       34.50272       67.64733
C          8.97747       33.80953       66.44202
C         10.34686       34.24041       68.39686
C          9.91506       32.87517       65.99340
C         11.27908       33.30004       67.94682
C         11.06418       32.61938       66.74550
H          6.79976       37.65869       68.62309
H          9.58172       36.91635       68.90073
H          7.28259       35.48069       67.48060
H          7.82961       35.25440       69.13739
H          8.09547       33.99983       65.84300
H         10.52923       34.75943       69.32924
H          9.75094       32.35075       65.06096
H         12.16942       33.09979       68.52877
H         11.78814       31.89438       66.39678
N          8.70166       37.57503       65.62706
C          9.31485       37.99553       64.36535
C         10.33222       39.10893       64.53514
O         11.43172       39.01850       64.00913
C          8.12126       38.51348       63.54348
C          7.02287       37.58724       63.98879
C          7.25533       37.53964       65.49433
H          9.77293       37.11042       63.87007
H          7.81941       39.53001       63.88804
H          8.29558       38.55715       62.44744
H          5.99288       37.88092       63.69251
H          7.24413       36.58124       63.56298
H          6.83313       38.42720       66.00075
H          6.77443       36.61778       65.84923
N         10.01022       40.18624       65.29605
C         10.87799       41.33443       65.54360
C         12.17370       40.89491       66.20274
O         13.23255       41.25217       65.70552
C         10.08827       42.38511       66.36668
C          8.94023       42.91646       65.47891
C          7.93216       43.79967       66.13294
O          7.00277       44.20262       65.45181
O          7.96351       44.13032       67.43461
H          9.08283       40.16952       65.74774
H         11.14616       41.82215       64.57880
H         10.73938       43.23956       66.65513
H          9.69256       41.91118       67.29179
H          8.34261       42.07668       65.07308
H          9.38285       43.46288       64.61811
N         12.16825       40.05410       67.27175
C         13.36831       39.52230       67.88618
H         14.29521       39.94261       67.44322
H         13.35955       39.74586       68.97228
H         13.38856       38.41926       67.74942
H         11.27100       39.72675       67.63795
Ca         6.02867       45.17632       67.88917
O          5.13737       43.63414       70.20105
H          5.72304       43.65700       70.99554
H          4.29856       43.22138       70.52481

Ca 1.0



