%chk=holoCaM-CaMKII.loop2.water2.frame63.chk
%nprocshared=20
%mem=10GB
%nosave
#b3lyp/svp scf=(tight,noincore,xqc) Test 
#IOP(5/87=12) Density=Current Pop=(MK,readradii) iop(6/33=2) iop(6/42=6)

holoCaM-CaMKII.loop2.water2.frame63 

   -2  1 
C         77.78244       62.12651       91.41213
C         76.69989       62.71682       92.27476
O         75.53902       62.65125       91.89777
H         78.78265       62.23275       91.88474
H         77.58931       61.04334       91.25862
H         77.80461       62.63560       90.42675
N         77.01299       63.29467       93.46805
C         76.02069       63.82375       94.39957
C         75.22971       64.98067       93.80467
O         75.80756       65.98059       93.40523
C         76.71688       64.22340       95.71928
C         75.84817       64.83100       96.80310
O         76.16914       65.91521       97.26184
O         74.79056       64.18158       97.34723
H         78.00597       63.31009       93.74860
H         75.33661       62.99420       94.62664
H         77.52714       64.94662       95.48094
H         77.19184       63.31216       96.14263
N         73.87162       64.88955       93.75165
C         72.95852       65.88911       93.22446
C         71.99703       66.39036       94.30852
O         71.04855       67.08141       93.96183
C         72.17068       65.23582       92.07658
H         73.43330       64.04253       94.11747
H         73.50233       66.76316       92.80712
H         72.87017       64.88854       91.28566
H         71.59072       64.35913       92.44123
H         71.46588       65.96071       91.61643
N         72.18025       66.11068       95.63860
C         71.20618       66.48913       96.67100
C         71.75027       66.53475       98.11717
O         70.95268       66.76488       99.01611
C         69.96479       65.57374       96.54736
C         70.32020       64.11298       96.56458
O         70.04560       63.40357       95.61017
O         70.95077       63.58003       97.61940
H         73.00367       65.56461       95.91054
H         70.87066       67.53540       96.49661
H         69.45136       65.78895       95.58632
H         69.24121       65.79545       97.36094
N         73.07745       66.43807       98.42287
C         73.63307       66.62379       99.76118
C         73.31071       65.55604      100.79625
O         73.79492       65.69998      101.91058
H         73.75825       66.35180       97.66827
H         73.30856       67.61350      100.14959
H         74.74197       66.64909       99.67557
N         72.51627       64.47601      100.54411
C         72.17913       63.49006      101.57537
C         73.33443       62.54828      101.94733
O         73.13274       61.70383      102.80947
C         70.90417       62.70506      101.18872
C         71.00664       61.80745       99.98450
N         69.92651       61.09191       99.60241
O         72.04404       61.72066       99.34657
H         72.07923       64.39196       99.62120
H         71.88370       64.04744      102.49299
H         70.08790       63.43822      101.00341
H         70.60005       62.07651      102.05364
H         69.03862       61.15785      100.12183
H         69.97885       60.47077       98.78672
N         74.57225       62.64375      101.37702
C         75.70802       61.81294      101.76492
C         75.67020       60.37453      101.26700
O         76.62429       59.66130      101.54281
H         74.75737       63.38873      100.69404
H         75.82249       61.83681      102.87081
H         76.62808       62.26086      101.33203
N         74.63784       59.87252      100.52978
C         74.58038       58.49613      100.03111
C         74.41149       58.46791       98.51366
O         74.35627       59.52260       97.89581
C         73.42803       57.74900      100.74779
C         73.72255       57.62179      102.24549
O         72.20600       58.42091      100.57677
H         73.83589       60.47634      100.32606
H         75.52447       57.95021      100.24982
H         73.33936       56.70647      100.36991
H         71.92194       58.27375       99.63754
H         72.91133       57.05286      102.74528
H         74.67876       57.07539      102.40030
H         73.80075       58.62064      102.72412
N         74.30610       57.27558       97.84860
C         74.14036       57.16750       96.40162
C         72.72904       56.68509       96.11365
O         72.40041       55.55255       96.44126
C         75.18889       56.18051       95.79823
C         76.64326       56.60985       96.11246
C         74.99565       56.02392       94.27195
C         77.63883       55.46053       95.92124
H         74.31759       56.39888       98.38995
H         74.27649       58.15967       95.93175
H         75.01304       55.19563       96.28581
H         76.73298       56.91003       97.17689
H         76.93239       57.47883       95.48402
H         75.69971       55.28680       93.83954
H         73.97977       55.65319       94.03599
H         75.14347       56.99822       93.75766
H         77.64625       55.07381       94.88368
H         78.66345       55.80770       96.16803
H         77.37996       54.62824       96.61228
N         71.83209       57.51203       95.50687
C         70.48155       57.09634       95.13926
C         70.51991       56.29521       93.85002
O         71.59001       56.14610       93.28255
C         69.58890       58.33766       94.95247
C         69.52580       59.14573       96.21429
O         69.03676       58.59458       97.34203
O         69.91892       60.30125       96.22310
H         72.11568       58.48103       95.30918
H         70.04611       56.48052       95.95807
H         68.55294       58.03290       94.69793
H         69.99157       58.96518       94.12547
N         69.39553       55.74198       93.31595
C         69.41870       55.00580       92.05592
C         69.77100       55.91696       90.87266
O         70.69426       55.56005       90.15798
C         68.10552       54.22490       91.82469
C         68.17848       53.34591       90.59377
C         67.28285       53.53889       89.52777
C         69.13791       52.31851       90.50182
C         67.34895       52.72337       88.39306
C         69.20149       51.50852       89.36478
C         68.30774       51.71025       88.31123
H         68.50600       55.82549       93.83302
H         70.20605       54.22433       92.14540
H         67.24402       54.90974       91.75167
H         67.91889       53.56875       92.70226
H         66.53382       54.31934       89.57289
H         69.83740       52.13889       91.30786
H         66.65591       52.87648       87.57622
H         69.94344       50.72258       89.30195
H         68.35747       51.08015       87.43258
N         69.12416       57.10354       90.59862
C         69.48600       58.00511       89.50237
C         70.97564       58.24887       89.39400
O         71.54230       58.14058       88.31508
C         68.79150       59.32572       89.88562
C         67.53552       58.83045       90.54958
C         68.07029       57.68838       91.40654
H         69.07353       57.60495       88.55014
H         69.36300       59.85497       90.68369
H         68.64750       60.03667       89.04465
H         66.95999       59.59573       91.11374
H         66.88699       58.40359       89.75207
H         68.52021       58.06816       92.34471
H         67.22655       57.01439       91.62683
N         71.66407       58.57690       90.51419
C         73.08488       58.87860       90.56677
C         73.90406       57.68110       90.12833
O         74.72518       57.80861       89.23145
C         73.45997       59.26039       92.00876
C         72.69534       60.50769       92.49786
C         73.01881       60.82249       93.92081
O         72.56087       61.95387       94.45949
O         73.80416       60.14232       94.55505
H         71.12711       58.59784       91.39342
H         73.31299       59.74938       89.91000
H         74.55283       59.46831       92.06333
H         73.22833       58.40900       92.68544
H         71.59595       60.39408       92.43665
H         72.98487       61.37450       91.86370
N         73.71858       56.47471       90.72605
C         74.47157       55.29381       90.37761
H         75.54608       55.45258       90.60502
H         74.10544       54.43156       90.97665
H         74.33885       55.06013       89.30092
H         73.00218       56.38620       91.45098
Ca        73.73134       62.53230       96.27677
O         75.76531       61.99125       98.61721
H         76.27401       62.77490       98.94314
H         76.44268       61.43589       98.16191
O         76.26176       60.63150       95.76102
H         76.17467       59.67030       95.54923
H         77.07101       60.92034       95.27233

Ca 1.0



