%chk=holoCaM-CaMKII.loop4.water2.frame265.chk
%nprocshared=20
%mem=10GB
%nosave
#b3lyp/svp scf=(tight,noincore,xqc) Test 
#IOP(5/87=12) Density=Current Pop=(MK,readradii) iop(6/33=2) iop(6/42=6)

holoCaM-CaMKII.loop4.water2.frame265 

   -3  1 
C         67.84280      100.24817       54.98400
C         66.89269       99.34998       55.71589
O         66.26201       99.78698       56.66771
H         68.86407       99.81623       55.00698
H         67.51125      100.34206       53.92697
H         67.86117      101.26092       55.43882
N         66.71079       98.07305       55.28506
C         65.71702       97.17910       55.86154
C         66.06696       96.81156       57.30430
O         67.06658       96.14527       57.53244
C         65.57366       95.94290       54.95101
C         64.39967       95.08779       55.28363
O         64.11108       94.15622       54.55588
O         63.66509       95.32399       56.37671
H         67.24698       97.76243       54.45896
H         64.74239       97.71955       55.82726
H         66.50345       95.33395       54.95286
H         65.39533       96.31011       53.91652
N         65.29656       97.27493       58.33107
C         65.60971       97.07770       59.74714
C         65.29175       95.64663       60.20320
O         66.22392       94.91293       60.50063
C         64.89484       98.16532       60.62216
C         65.21592       99.62216       60.16478
C         65.20682       97.99676       62.11920
C         66.69954      100.00136       60.17666
H         64.52823       97.90316       58.07806
H         66.70207       97.23788       59.87519
H         63.79553       98.04761       60.51561
H         64.66393      100.33345       60.81740
H         64.84281       99.79430       59.13554
H         64.66676       98.77020       62.70783
H         64.86163       97.00674       62.48240
H         66.29347       98.08556       62.31919
H         66.80792      101.05633       59.84718
H         67.13077       99.91118       61.19326
H         67.27680       99.37260       59.46841
N         64.00441       95.19540       60.33345
C         63.65874       93.84761       60.81487
C         64.10513       92.72252       59.86600
O         63.99864       91.56748       60.25479
C         62.13128       93.71873       61.12232
C         61.26196       93.95125       59.91685
O         60.05129       93.80718       59.96294
O         61.86440       94.33005       58.78781
H         63.24334       95.85781       60.14847
H         64.18763       93.69562       61.78123
H         61.84292       94.44823       61.90842
H         61.93205       92.69621       61.51108
N         64.63059       92.96973       58.63097
C         65.18347       91.93547       57.77079
C         64.17972       90.93316       57.23904
O         64.37259       89.74449       57.45244
H         64.71539       93.93790       58.29649
H         65.99614       91.40853       58.31812
H         65.64649       92.42148       56.88401
N         63.14524       91.33544       56.44567
C         62.30783       90.40946       55.67876
C         62.50400       90.64331       54.17607
O         61.72450       90.13443       53.38265
C         60.82531       90.48234       56.12216
C         60.08296       91.75203       55.81743
O         58.79837       91.87405       56.19985
O         60.60564       92.65685       55.19807
H         63.00422       92.34594       56.30247
H         62.60405       89.35530       55.87536
H         60.78306       90.29983       57.21715
H         60.26711       89.66150       55.62063
N         63.58142       91.34909       53.71605
C         63.87881       91.57981       52.31292
C         63.12015       92.73466       51.68415
O         63.41997       93.02841       50.53466
H         64.29998       91.66238       54.38236
H         63.76040       90.63978       51.73195
H         64.95101       91.86965       52.24497
N         62.16030       93.45326       52.34287
C         61.49242       94.61617       51.75552
C         61.61603       95.84931       52.64144
O         62.06613       95.75222       53.77152
C         60.00504       94.31710       51.49215
C         59.82204       93.16176       50.49814
C         58.37483       93.01687       50.10285
N         57.69834       91.86883       50.33441
O         57.80855       93.94874       49.55012
H         61.88964       93.17369       53.29025
H         61.96617       94.87428       50.78292
H         59.53957       95.22699       51.05591
H         59.48172       94.07982       52.44508
H         60.20520       92.22089       50.95029
H         60.40530       93.36810       49.57497
H         58.15385       91.06725       50.79326
H         56.71148       91.78160       50.04874
N         61.23393       97.06528       52.16321
C         61.32075       98.31720       52.90973
C         59.93567       98.93486       52.97957
O         59.32811       99.11998       51.93221
C         62.31799       99.27822       52.19683
C         62.37730      100.65962       52.87448
C         63.73458       98.67931       52.17894
H         60.88534       97.11839       51.19283
H         61.70180       98.15236       53.94115
H         61.98518       99.43034       51.14588
H         63.07791      101.32619       52.32781
H         61.38328      101.15208       52.86552
H         62.72766      100.56833       53.92195
H         64.10752       98.52887       53.21584
H         63.74798       97.70415       51.65007
H         64.43356       99.36233       51.64997
N         59.40238       99.34460       54.17023
C         58.12473      100.04935       54.26158
C         58.37013      101.51767       54.56430
O         59.51977      101.91255       54.71200
C         57.12912       99.36929       55.24026
C         57.33189       99.63728       56.71741
N         58.41342       99.19109       57.38688
O         56.46877      100.25031       57.32877
H         59.96993       99.24247       55.01913
H         57.62647      100.01882       53.26877
H         57.09577       98.27514       55.04716
H         56.12031       99.76542       54.99185
H         59.13378       98.63840       56.91591
H         58.51232       99.37600       58.39641
N         57.33664      102.40266       54.62141
C         57.54368      103.83890       54.78903
C         58.26087      104.18016       56.08514
O         58.94578      105.19316       56.12780
C         56.19967      104.58813       54.72955
C         56.39507      106.08270       54.79562
C         57.08970      106.75242       53.77404
C         55.90027      106.81569       55.88603
C         57.28850      108.13303       53.84444
C         56.10272      108.19649       55.95572
C         56.79827      108.85985       54.93402
O         57.00195      110.19102       54.98920
H         56.37689      102.04806       54.49045
H         58.18233      104.17298       53.94116
H         55.56987      104.23655       55.57748
H         55.66721      104.34068       53.78596
H         57.47908      106.20588       52.92410
H         55.36793      106.31826       56.68740
H         57.82681      108.63688       53.05167
H         55.72142      108.74809       56.80545
H         56.68048      110.72956       55.72612
N         58.12023      103.40494       57.19251
C         58.81540      103.67905       58.44271
C         60.31392      103.54959       58.21729
O         61.05997      104.47042       58.51877
C         58.31571      102.69751       59.52830
C         58.79818      103.06353       60.93791
C         58.18572      102.14382       61.95736
O         58.41898      100.94589       61.92742
O         57.36690      102.63839       62.90617
H         57.49483      102.58894       57.14280
H         58.55417      104.70642       58.78290
H         58.61000      101.65574       59.27628
H         57.20398      102.74656       59.54353
H         58.48107      104.10509       61.16557
H         59.90506      103.00665       61.00538
N         60.80479      102.41126       57.65136
C         62.22256      102.15147       57.39936
C         62.80119      103.04126       56.29467
O         64.00217      102.97159       56.07191
C         62.42026      100.66461       57.00293
C         61.86757       99.69257       58.06746
C         61.90594       98.25931       57.62236
O         62.29354       97.30597       58.48042
O         61.47327       97.93114       56.53150
H         60.11644      101.68866       57.40077
H         62.78345      102.33227       58.34319
H         63.49825      100.44815       56.83381
H         61.87319      100.49341       56.05185
H         60.80797       99.90687       58.26491
H         62.39888       99.81632       59.03439
N         62.01952      103.87562       55.54656
C         62.52092      104.72140       54.48086
H         63.61661      104.62430       54.33614
H         62.01503      104.45030       53.52958
H         62.28826      105.78246       54.71314
H         61.01025      103.91638       55.71160
Ca        61.54290       94.67984       56.64655
O         59.00828       96.17583       58.11361
H         58.94089       96.21933       59.10018
H         58.11946       96.47088       57.79236
O         58.90395       95.61107       54.88707
H         58.18818       95.53991       54.20693
H         58.87482       94.74519       55.36585

Ca 1.0



