%chk=holoCaM-CaMKII.loop2.water2.frame451.chk
%nprocshared=20
%mem=10GB
%nosave
#b3lyp/svp scf=(tight,noincore,xqc) Test 
#IOP(5/87=12) Density=Current Pop=(MK,readradii) iop(6/33=2) iop(6/42=6)

holoCaM-CaMKII.loop2.water2.frame451 

   -2  1 
C         68.71428       35.68884       44.96491
C         69.82947       34.68419       44.98011
O         70.12107       34.09072       43.95593
H         67.92891       35.39878       45.69205
H         69.12076       36.68405       45.25162
H         68.26695       35.77582       43.95220
N         70.53198       34.48296       46.12384
C         71.73603       33.66330       46.20545
C         71.46710       32.17380       45.98677
O         70.65642       31.61241       46.71034
C         72.38130       33.87142       47.59554
C         73.77889       33.34286       47.68569
O         74.32722       32.87306       46.70738
O         74.45916       33.44834       48.84087
H         70.24273       35.02121       46.95615
H         72.45243       34.04839       45.44769
H         71.74787       33.40043       48.37724
H         72.45177       34.95730       47.81434
N         72.16933       31.46071       45.05161
C         72.04033       30.01300       44.86369
C         73.34341       29.25132       45.14130
O         73.31424       28.02928       45.08949
C         71.58681       29.73222       43.42742
H         72.84425       31.96252       44.45950
H         71.27356       29.60476       45.55686
H         70.62286       30.24346       43.22379
H         72.34689       30.10119       42.70394
H         71.44536       28.64149       43.26624
N         74.52121       29.88903       45.40803
C         75.80124       29.21701       45.61839
C         76.41670       29.57854       46.97399
O         76.70332       28.66107       47.73141
C         76.73516       29.46499       44.40566
C         76.73815       30.86187       43.83254
O         76.35459       31.04373       42.68782
O         77.16633       31.91178       44.54336
H         74.54246       30.91097       45.40507
H         75.67344       28.11006       45.64024
H         76.36596       28.80713       43.58730
H         77.76847       29.13304       44.64639
N         76.62945       30.86838       47.36572
C         77.20822       31.24687       48.65295
C         78.41951       32.16091       48.52323
O         78.95040       32.55982       49.55003
H         76.33404       31.62621       46.74663
H         77.50443       30.35351       49.24443
H         76.43595       31.78937       49.23594
N         78.92391       32.52877       47.30913
C         80.11107       33.36214       47.12281
C         79.95728       34.83871       47.53375
O         80.90902       35.58265       47.33844
C         80.61219       33.25188       45.65994
C         79.73399       33.85487       44.59426
N         80.18102       33.88541       43.31939
O         78.64362       34.33218       44.86479
H         78.50032       32.12832       46.46922
H         80.92990       32.92260       47.73336
H         80.77524       32.18019       45.40927
H         81.59575       33.76320       45.59841
H         81.09708       33.48582       43.07218
H         79.63162       34.33530       42.58034
N         78.83776       35.33733       48.13682
C         78.72630       36.71547       48.60344
C         78.47199       37.76227       47.52820
O         78.35983       38.92191       47.89881
H         78.06829       34.70546       48.38175
H         79.63469       36.97934       49.18906
H         77.85977       36.77932       49.29620
N         78.34393       37.45735       46.20375
C         78.05466       38.45609       45.16704
C         76.77766       38.09506       44.41871
O         76.20844       37.05210       44.69711
C         79.24957       38.56379       44.18567
C         80.55008       38.94583       44.90795
O         79.41564       37.38086       43.44160
H         78.45290       36.48194       45.91076
H         77.90048       39.45777       45.62351
H         79.04192       39.38003       43.46172
H         79.80332       36.69236       44.03939
H         81.37050       39.06448       44.16986
H         80.41755       39.90442       45.45289
H         80.84381       38.15978       45.63624
N         76.29461       38.88831       43.41434
C         75.14266       38.51133       42.59991
C         75.67183       38.08363       41.24763
O         76.13827       38.92630       40.49247
C         74.10182       39.67734       42.48564
C         73.53488       40.05072       43.87896
C         72.96051       39.31466       41.51047
C         72.57677       41.25019       43.85644
H         76.80757       39.74525       43.15961
H         74.62503       37.63517       43.04487
H         74.62373       40.56865       42.06993
H         74.37902       40.31987       44.54828
H         73.00419       39.17809       44.31819
H         72.39196       38.43269       41.87174
H         72.26301       40.16292       41.36638
H         73.36013       39.10417       40.50176
H         73.07812       42.14103       43.42169
H         71.65438       41.03243       43.28028
H         72.25942       41.49215       44.89212
N         75.65061       36.76596       40.88463
C         76.04751       36.31945       39.55694
C         74.99351       36.78051       38.55932
O         73.95054       37.26012       38.97415
C         76.24261       34.77955       39.47524
C         77.51870       34.27775       40.13503
O         77.62147       34.04697       41.46127
O         78.46669       33.97951       39.42638
H         75.29969       36.07830       41.55544
H         77.01810       36.79386       39.29110
H         76.36702       34.54222       38.39816
H         75.34893       34.21293       39.82043
N         75.20948       36.71022       37.21872
C         74.24102       37.21169       36.24873
C         72.91667       36.44321       36.30094
O         71.89966       37.10890       36.42390
C         74.84922       37.26500       34.83109
C         73.86494       37.79389       33.81272
C         73.31758       39.08564       33.93401
C         73.48074       36.98757       32.72845
C         72.39852       39.55332       32.98957
C         72.56416       37.46056       31.78611
C         72.02209       38.74133       31.91686
H         76.11297       36.34176       36.88319
H         74.02458       38.27363       36.50706
H         75.20995       36.26930       34.52285
H         75.73932       37.93155       34.84736
H         73.59637       39.73131       34.75696
H         73.88769       35.99071       32.61372
H         71.97723       40.54552       33.08945
H         72.27329       36.83174       30.95510
H         71.31072       39.10417       31.18659
N         72.81666       35.07452       36.23071
C         71.55501       34.33891       36.31883
C         70.66828       34.79337       37.46390
O         69.49270       35.05487       37.25053
C         72.00411       32.88885       36.55343
C         73.28303       32.83352       35.75826
C         73.93584       34.15873       36.13296
H         71.01974       34.42981       35.34701
H         72.29963       32.74154       37.61778
H         71.24204       32.12359       36.29429
H         73.92048       31.94149       35.93496
H         73.00570       32.87035       34.67955
H         74.43504       34.10689       37.12273
H         74.66240       34.40298       35.34095
N         71.19753       34.94157       38.70773
C         70.44753       35.39352       39.87694
C         69.84035       36.75880       39.62010
O         68.64411       36.92032       39.81352
C         71.37330       35.46185       41.10506
C         71.91761       34.07366       41.49389
C         72.94729       34.15633       42.57556
O         73.89934       33.21762       42.55548
O         73.16184       35.20887       43.15514
H         72.20672       34.75606       38.80820
H         69.63294       34.67199       40.11146
H         70.82038       35.87890       41.97498
H         72.22423       36.14198       40.87292
H         72.43734       33.62561       40.62272
H         71.11114       33.36979       41.77864
N         70.60894       37.77679       39.14456
C         70.10425       39.09822       38.83996
H         69.03686       39.21716       39.11730
H         70.70074       39.85377       39.39075
H         70.21131       39.28612       37.75045
H         71.59972       37.60064       38.95017
Ca        75.87494       34.15475       42.80821
O         76.17458       35.08201       46.57572
H         76.55816       34.18904       46.75987
H         75.97882       35.46754       47.46663
O         73.61392       36.58136       46.07377
H         73.80539       36.59918       45.10560
H         72.70710       36.96895       46.14477

Ca 1.0



