%chk=holoCaM-CaMKII.loop3.water2.frame151.chk
%nprocshared=20
%mem=10GB
%nosave
#b3lyp/svp scf=(tight,noincore,xqc) Test 
#IOP(5/87=12) Density=Current Pop=(MK,readradii) iop(6/33=2) iop(6/42=6)

holoCaM-CaMKII.loop3.water2.frame151 

   0  1 
C          2.18285        0.35421       64.39891
C          2.95154        0.55487       65.66951
O          2.36618        0.95141       66.66617
H          1.11184        0.61380       64.53978
H          2.60649        1.00146       63.60226
H          2.25641       -0.70799       64.08471
N          4.28785        0.29848       65.69795
C          5.11891        0.46899       66.87957
C          6.15541        1.53130       66.57210
O          7.33482        1.22916       66.46054
C          5.73991       -0.89242       67.26187
C          6.45035       -0.87504       68.59288
O          6.97073       -1.89835       69.00321
O          6.48940        0.23574       69.35622
H          4.74476       -0.03043       64.83258
H          4.51296        0.81010       67.74690
H          6.43826       -1.22578       66.46412
H          4.93285       -1.64884       67.33697
N          5.75755        2.81964       66.38408
C          6.68087        3.89264       66.02185
C          7.68893        4.22859       67.12359
O          8.55529        5.05019       66.85612
C          5.90014        5.16782       65.62326
C          5.02088        4.93801       64.37891
C          4.27579        6.21877       63.97725
C          3.45351        6.05781       62.68511
N          2.37534        5.07536       62.81867
H          4.75042        3.02659       66.46647
H          7.25829        3.56519       65.12797
H          6.62420        5.97605       65.37729
H          5.27556        5.50651       66.47955
H          4.28411        4.13699       64.58357
H          5.67011        4.61757       63.53465
H          5.02332        7.02289       63.80046
H          3.60728        6.54132       64.80515
H          4.12285        5.76794       61.84480
H          3.00604        7.04602       62.43809
H          1.75093        5.33000       63.61798
H          1.81076        5.07250       61.93856
H          2.76026        4.11417       62.95542
N          7.66114        3.65225       68.36520
C          8.63824        3.95801       69.41228
C          9.51540        2.75065       69.76896
O         10.41675        2.91063       70.58033
C          7.92327        4.59555       70.62161
C          6.85262        3.72876       71.21673
O          7.16941        2.54465       71.75762
O          5.69078        4.10333       71.22741
H          6.92237        2.97417       68.59588
H          9.35815        4.72536       69.05292
H          7.45644        5.54547       70.27772
H          8.66473        4.85167       71.40870
N          9.38094        1.54689       69.13600
C         10.33213        0.44962       69.24953
C         10.40223       -0.26410       70.58171
O         11.22884       -1.16053       70.68449
H          8.64226        1.42614       68.43942
H         11.34279        0.83751       68.99652
H         10.07238       -0.32207       68.49174
N          9.60466        0.04239       71.64435
C          9.75452       -0.63290       72.93342
C          9.37313       -2.11264       72.90063
O          9.57484       -2.77174       73.91175
C          8.96365        0.09770       74.04139
C          7.46800       -0.10592       73.96109
N          6.79384       -0.61763       75.01568
O          6.85853        0.19309       72.94779
H          8.93004        0.81019       71.55543
H         10.82896       -0.54608       73.21306
H          9.19984        1.18283       73.99758
H          9.31971       -0.27292       75.02786
H          7.28496       -0.87159       75.88456
H          5.77402       -0.74861       74.97098
N          8.79662       -2.69828       71.80569
C          8.39341       -4.09471       71.77347
C          6.90913       -4.21718       71.53385
O          6.50627       -4.90206       70.60461
H          8.61412       -2.14378       70.96028
H          8.61939       -4.60355       72.73497
H          8.95627       -4.62543       70.97541
N          6.03618       -3.59297       72.37056
C          4.58640       -3.74356       72.31020
C          3.89391       -2.38360       72.00877
O          4.31699       -1.44265       72.97065
C          4.06599       -4.41024       73.62190
C          4.51355       -3.75290       74.91219
C          5.80379       -4.00152       75.41603
C          3.64712       -2.92021       75.64114
C          6.22483       -3.41974       76.61336
C          4.07474       -2.32969       76.83704
C          5.36655       -2.57805       77.32591
O          5.79499       -2.01445       78.47354
H          6.42967       -2.99435       73.11072
H          4.29650       -4.42209       71.47802
H          4.39919       -5.47012       73.66039
H          2.95738       -4.46371       73.59309
H          6.48435       -4.65445       74.88342
H          2.64709       -2.71742       75.27908
H          7.22203       -3.62102       76.98487
H          3.40294       -1.67923       77.38260
H          5.23954       -1.41737       78.99431
N          2.42228       -2.56819       72.00645
C          1.62760       -1.48890       71.38620
C          0.30030       -1.35831       72.10377
O         -0.05731       -2.22659       72.88991
C          1.44139       -1.59397       69.83673
C          0.58297       -2.81237       69.40494
C          2.79891       -1.56233       69.12322
C          0.20893       -2.78901       67.91956
H          2.14416       -3.48584       71.59110
H          2.12476       -0.54345       71.56257
H          0.89273       -0.67818       69.52144
H         -0.37378       -2.79742       69.96911
H          1.10494       -3.76575       69.62816
H          2.66502       -1.48235       68.02712
H          3.37778       -0.67160       69.44658
H          3.38710       -2.47732       69.34218
H         -0.45312       -3.65077       67.69209
H         -0.33719       -1.85233       67.67489
H          1.10295       -2.87316       67.26998
N         -0.45652       -0.24321       71.91428
C         -1.71674        0.00781       72.59863
C         -2.81747        0.30953       71.59826
O         -2.56336        0.32795       70.40253
C         -1.51894        1.18861       73.56620
O         -1.15185        2.34298       72.86103
H         -0.09439        0.49535       71.29088
H         -2.02554       -0.87486       73.20066
H         -0.71405        0.92004       74.28724
H         -2.45419        1.38015       74.13542
H         -1.01189        3.05081       73.54198
N         -4.07698        0.58578       72.03103
C         -5.15389        1.01167       71.14485
C         -4.78985        2.32072       70.46541
O         -4.91314        2.41994       69.25335
C         -6.44786        1.20076       71.94465
H         -4.26917        0.52497       73.04332
H         -5.35330        0.22676       70.38056
H         -6.32074        1.97260       72.73368
H         -7.27274        1.51125       71.26785
H         -6.73587        0.24204       72.42665
N         -4.30298        3.36021       71.20359
C         -3.95262        4.66708       70.65401
C         -2.98856        4.56112       69.48697
O         -3.30138        5.08446       68.42614
C         -3.34588        5.55096       71.75153
H         -4.16839        3.20720       72.21534
H         -4.88233        5.16459       70.29745
H         -4.06792        5.66918       72.58763
H         -2.41304        5.09840       72.15193
H         -3.11072        6.55889       71.34815
N         -1.81051        3.88362       69.59824
C         -0.86617        3.74551       68.48931
C         -1.55333        3.11000       67.29173
O         -1.60726        3.73589       66.24161
C          0.36043        2.90207       68.90887
C          1.24551        3.61464       69.94886
C          2.33922        2.70601       70.44543
O          3.13339        2.20001       69.66867
O          2.41393        2.42944       71.76321
H         -1.59741        3.43117       70.49900
H         -0.50666        4.75474       68.18474
H          0.99027        2.70588       68.01486
H          0.00803        1.92602       69.30743
H          0.63625        3.92537       70.82327
H          1.68908        4.52513       69.49139
N         -2.12432        1.87950       67.38173
C         -2.82240        1.26953       66.27152
H         -3.67810        1.90946       65.96579
H         -2.13141        1.13718       65.41255
H         -3.21586        0.27532       66.57255
H         -2.07566        1.36397       68.26806
Ca         3.60973        0.73401       72.68028
O          2.64798        0.88903       75.54970
H          2.29272        0.10154       75.06543
H          3.58106        0.64317       75.77231
O          5.48984        2.62782       74.50310
H          5.78839        3.56649       74.40369
H          6.02068        2.27754       75.26194

Ca 1.0



