%chk=holoCaM.loop3.water3.frame440.chk
%nprocshared=20
%mem=10GB
%nosave
#b3lyp/svp scf=(tight,noincore,xqc) Test 
#IOP(5/87=12) Density=Current Pop=(MK,readradii) iop(6/33=2) iop(6/42=6)

holoCaM.loop3.water3.frame440 

   0  1 
C         16.11829       69.65082       59.02907
C         17.14383       68.76571       59.66862
O         17.04388       67.55578       59.52221
H         15.11424       69.41764       59.43850
H         16.34142       70.72358       59.20727
H         16.11796       69.47066       57.93293
N         18.16713       69.30244       60.39244
C         19.23995       68.50655       60.96762
C         19.18916       68.61273       62.47838
O         19.35719       69.70440       63.00562
C         20.56812       69.01585       60.37934
C         21.75861       68.19171       60.73822
O         21.64064       67.07713       61.47406
O         22.85318       68.52626       60.32887
H         18.20419       70.32574       60.52210
H         19.10768       67.44299       60.68999
H         20.73987       70.06393       60.71016
H         20.49687       69.00943       59.26996
N         18.87673       67.52049       63.23750
C         18.62679       67.62607       64.66858
C         19.86315       67.94018       65.50398
O         19.66697       68.31510       66.65219
C         17.88842       66.38875       65.23570
C         16.52356       66.15861       64.55199
C         15.60876       65.27635       65.41454
C         14.22454       65.10013       64.77075
N         13.28294       64.49347       65.71189
H         18.68044       66.63056       62.76235
H         17.93007       68.48453       64.80156
H         17.70020       66.60319       66.31030
H         18.50827       65.46571       65.17312
H         16.66277       65.72841       63.53659
H         16.00700       67.13683       64.44594
H         15.47404       65.79572       66.38873
H         16.06696       64.28080       65.60324
H         14.31368       64.46645       63.86359
H         13.82018       66.09037       64.46438
H         13.64079       63.57181       66.05080
H         13.13864       65.13621       66.52556
H         12.36259       64.35346       65.23571
N         21.14576       67.80067       65.04355
C         22.31136       68.16721       65.85835
C         23.26360       69.14064       65.16943
O         23.91706       69.88790       65.88497
C         23.03547       66.94885       66.47495
C         23.67133       65.96701       65.53108
O         23.56886       66.09646       64.19974
O         24.25556       65.00040       65.99174
H         21.28941       67.40101       64.11017
H         21.95174       68.72150       66.75360
H         22.30087       66.38838       67.09409
H         23.83070       67.32727       67.15427
N         23.42033       69.19281       63.81240
C         24.27533       70.16755       63.14467
C         25.47547       69.55696       62.44460
O         26.23355       70.31803       61.85946
H         22.91244       68.53291       63.21422
H         24.67663       70.90920       63.86839
H         23.65933       70.72734       62.40867
N         25.75999       68.22154       62.49579
C         26.99976       67.65988       61.95340
C         27.13332       67.77668       60.43786
O         28.21605       67.52280       59.92946
C         27.18107       66.19092       62.40117
C         26.21056       65.22125       61.76033
N         26.66926       64.14825       61.07533
O         25.00625       65.38808       61.87524
H         25.12905       67.60534       63.01979
H         27.82869       68.24140       62.41498
H         27.06200       66.14056       63.50507
H         28.21972       65.87307       62.16648
H         27.67922       63.97525       60.97070
H         26.01208       63.47703       60.65524
N         26.07254       68.11128       59.65373
C         26.13095       68.24037       58.20905
C         25.32430       67.17072       57.50434
O         25.20412       67.26524       56.29015
H         25.16075       68.26337       60.09008
H         27.17256       68.17870       57.82681
H         25.73366       69.24357       57.94204
N         24.79804       66.09405       58.16720
C         24.08513       65.01356       57.49136
C         22.72630       64.79463       58.12812
O         22.48259       65.32235       59.20619
C         24.87394       63.68810       57.58574
C         26.30002       63.74880       57.07934
C         27.27952       64.50521       57.75224
C         26.67938       63.00397       55.95044
C         28.60109       64.52008       57.30508
C         28.00447       63.02074       55.50284
C         28.97021       63.77803       56.18147
O         30.25348       63.79404       55.76942
H         24.94718       65.99890       59.18223
H         23.93870       65.26801       56.41890
H         24.30691       62.92034       57.01522
H         24.91065       63.34685       58.63945
H         27.03873       65.07495       58.63523
H         25.95178       62.40508       55.41751
H         29.34028       65.10290       57.84105
H         28.28022       62.43908       54.63293
H         30.55433       63.28385       55.00437
N         21.78601       64.01429       57.51563
C         20.47866       63.73992       58.10588
C         20.05841       62.30007       57.83212
O         19.90737       61.92583       56.67742
C         19.40018       64.78178       57.64984
C         19.06984       64.73231       56.13505
C         19.83058       66.19521       58.07702
C         17.97027       65.71151       55.71719
H         21.99338       63.63360       56.57921
H         20.55197       63.85294       59.21163
H         18.46601       64.54669       58.20350
H         18.67896       63.73129       55.87463
H         19.98280       64.92931       55.53391
H         20.72139       66.53429       57.50883
H         19.02205       66.93458       57.92501
H         20.06985       66.19439       59.15641
H         18.29330       66.76421       55.84174
H         17.73330       65.56148       54.64329
H         17.04982       65.53244       56.31268
N         19.83805       61.42584       58.85479
C         19.28997       60.08693       58.63559
C         17.84809       60.18349       58.14262
O         17.32364       61.28088       58.04859
C         19.34970       59.26752       59.94038
O         18.58210       59.87907       60.94014
H         20.03860       61.73091       59.81642
H         19.91340       59.55842       57.88124
H         20.41556       59.20252       60.25926
H         18.97118       58.23670       59.77157
H         18.92075       59.54029       61.80914
N         17.13234       59.06850       57.82843
C         15.71773       59.11310       57.45684
C         14.88478       59.65758       58.60272
O         14.08225       60.55419       58.38553
C         15.21479       57.71535       57.09220
H         17.60370       58.15267       57.87960
H         15.58095       59.75112       56.55405
H         15.79403       57.32308       56.22988
H         15.31911       57.01699       57.94897
H         14.14394       57.76683       56.79661
N         15.07452       59.18325       59.86774
C         14.36495       59.67282       61.04740
C         14.42128       61.18458       61.13364
O         13.38748       61.81289       61.31363
C         14.98691       59.06198       62.31291
H         15.80675       58.46852       60.00389
H         13.29948       59.35762       61.00186
H         14.44657       59.40956       63.21909
H         14.92559       57.95353       62.27267
H         16.05707       59.35088       62.40619
N         15.60453       61.83175       60.96936
C         15.75116       63.28241       61.01781
C         14.87032       63.93566       59.96327
O         13.99477       64.70678       60.33124
C         17.24621       63.66491       60.88483
C         18.02341       63.10531       62.09495
C         19.49030       63.39312       62.09002
O         20.29713       62.48294       62.19297
O         19.91532       64.65939       62.14350
H         16.43280       61.25245       60.77752
H         15.41180       63.64479       62.01131
H         17.35062       64.77277       60.86852
H         17.65948       63.25351       59.94072
H         17.89933       62.01015       62.17442
H         17.60461       63.55064       63.02138
N         15.00658       63.63303       58.64307
C         14.13099       64.14089       57.60502
H         13.33913       64.80896       58.00370
H         14.72531       64.70003       56.85459
H         13.63427       63.28463       57.09945
H         15.74498       62.98605       58.35327
Ca        21.83114       65.06395       63.23454
O         21.36573       62.72244       65.07731
H         20.40093       62.92575       65.16883
H         21.81480       63.38500       65.66002
O         23.41265       62.44252       60.94777
H         23.78206       61.86316       60.23522
H         23.96537       62.23343       61.74133
O         25.16252       63.20665       63.93263
H         24.22882       62.96225       64.15399
H         25.70919       62.46641       64.29580

Ca 1.0



