%chk=holoCaM.loop4.water3.frame9.chk
%nprocshared=20
%mem=10GB
%nosave
#b3lyp/svp scf=(tight,noincore,xqc) Test 
#IOP(5/87=12) Density=Current Pop=(MK,readradii) iop(6/33=2) iop(6/42=6)

holoCaM.loop4.water3.frame9 

   -3  1 
C         86.12843       55.56855       55.28747
C         86.10356       55.90568       53.82679
O         85.46032       55.19562       53.06848
H         85.69233       56.41198       55.86408
H         85.52649       54.65648       55.49259
H         87.17172       55.39559       55.62065
N         86.77402       57.00204       53.36730
C         86.72525       57.46203       51.98146
C         88.11224       57.42812       51.34046
O         89.11014       57.26643       52.02724
C         86.05746       58.85989       51.99248
C         85.90820       59.64120       50.70643
O         85.21511       59.18482       49.64426
O         86.37591       60.76696       50.64871
H         87.31123       57.56483       54.04510
H         86.09544       56.76640       51.39559
H         86.63315       59.49761       52.69862
H         85.03714       58.73458       52.41435
N         88.20167       57.45156       49.98112
C         89.40350       57.22869       49.17684
C         89.31849       58.09848       47.91747
O         90.25913       58.83533       47.65851
C         89.55768       55.70634       48.81220
C         89.81696       54.79844       50.05352
C         90.65175       55.45107       47.75529
C         91.15144       55.03259       50.77883
H         87.31415       57.49873       49.48028
H         90.31420       57.52982       49.73584
H         88.61285       55.36550       48.34331
H         89.82062       53.73605       49.72493
H         88.98711       54.90860       50.78086
H         90.71711       54.36342       47.52935
H         90.40615       55.96308       46.80237
H         91.64344       55.80867       48.09758
H         92.01335       54.83212       50.10995
H         91.23448       56.06237       51.17462
H         91.23164       54.33133       51.63653
N         88.22251       58.06391       47.09274
C         88.12165       58.80358       45.83004
C         87.14588       59.97980       45.86838
O         87.03462       60.67309       44.86622
C         87.73674       57.82526       44.69679
C         86.35223       57.22006       44.81789
O         85.52148       57.54258       45.82942
O         85.97010       56.43178       43.96899
H         87.42604       57.47112       47.35922
H         89.11172       59.24296       45.58125
H         88.48351       57.00310       44.67336
H         87.78462       58.36226       43.72511
N         86.42216       60.28117       46.97902
C         85.51655       61.41605       47.06850
C         84.36167       61.33699       46.09458
O         84.21447       62.25333       45.29770
H         86.54712       59.70514       47.81521
H         86.09105       62.35405       46.89938
H         85.09089       61.46609       48.09351
N         83.47958       60.29316       46.12552
C         82.29294       60.22891       45.26397
C         80.97855       60.22536       46.04776
O         79.94127       60.39660       45.42175
C         82.36887       59.04132       44.27930
C         82.40586       57.66965       44.90176
O         82.42674       57.49647       46.23529
O         82.42665       56.68983       44.17542
H         83.66091       59.53483       46.79775
H         82.25220       61.14558       44.63576
H         83.27832       59.15613       43.65108
H         81.48330       59.08695       43.60798
N         80.93077       60.03948       47.39930
C         79.71130       60.12948       48.19154
C         79.27764       58.80512       48.79417
O         78.40714       58.82779       49.65230
H         81.79520       59.84025       47.91347
H         78.85382       60.52169       47.60249
H         79.90487       60.85913       49.00708
N         79.75235       57.61130       48.33230
C         79.26977       56.31121       48.79086
C         80.41033       55.36683       49.12304
O         81.27482       55.13835       48.28742
C         78.40483       55.65928       47.69509
C         77.02565       56.32930       47.60484
C         76.16053       55.66426       46.56951
N         76.47132       55.74704       45.25611
O         75.15957       55.05577       46.91849
H         80.41193       57.61450       47.54653
H         78.62670       56.41055       49.69289
H         78.21946       54.59548       47.96869
H         78.94338       55.67729       46.72136
H         77.11232       57.41018       47.36856
H         76.53491       56.22728       48.59958
H         77.29838       56.27629       44.94435
H         75.87169       55.29784       44.54840
N         80.39829       54.69519       50.31142
C         81.33787       53.62962       50.65245
C         81.20518       52.49492       49.63994
O         80.09983       52.07525       49.32699
C         81.11171       53.11133       52.10472
C         82.10540       51.98568       52.45381
C         81.29246       54.23876       53.14044
H         79.64063       54.90763       50.97629
H         82.37254       54.02880       50.62043
H         80.07785       52.71116       52.19164
H         81.93338       51.62516       53.48992
H         81.98204       51.11651       51.77709
H         83.15288       52.35130       52.37816
H         80.58362       55.07435       52.97637
H         81.10993       53.84942       54.16436
H         82.32651       54.64171       53.10491
N         82.33053       51.94361       49.11752
C         82.39582       50.90537       48.10209
C         82.98998       49.64353       48.71694
O         83.33263       49.64747       49.89153
C         83.28221       51.46732       46.95470
C         83.45588       50.58919       45.74125
N         82.39504       50.23670       44.98155
O         84.57507       50.21398       45.42353
H         83.22211       52.26915       49.48696
H         81.37882       50.66896       47.72177
H         84.28958       51.69523       47.37109
H         82.83820       52.42163       46.60497
H         81.44655       50.55745       45.22067
H         82.52749       49.64855       44.14528
N         83.10965       48.50520       47.98283
C         83.72606       47.27531       48.48244
C         85.25760       47.33059       48.48443
O         85.86197       46.39304       48.98157
C         83.17618       46.05606       47.70850
C         83.32546       46.19662       46.21193
C         84.58616       46.17344       45.59575
C         82.17838       46.39219       45.42206
C         84.69694       46.35830       44.21508
C         82.29183       46.58250       44.04537
C         83.54929       46.57024       43.43661
O         83.64224       46.76636       42.10688
H         82.70864       48.51347       47.03746
H         83.40639       47.12249       49.53874
H         82.09278       46.00315       47.95839
H         83.63243       45.10761       48.06500
H         85.48372       46.01741       46.17787
H         81.19470       46.42303       45.87547
H         85.67577       46.34406       43.75372
H         81.40005       46.74968       43.45480
H         84.49376       46.77573       41.64796
N         85.94733       48.40972       48.00390
C         87.38958       48.58912       48.18408
C         87.64462       49.50735       49.37289
O         88.80199       49.75437       49.69424
C         88.01010       49.21707       46.91328
C         87.88139       48.37619       45.63475
C         88.72361       47.12893       45.66350
O         89.62760       46.98806       44.85475
O         88.48097       46.15239       46.55705
H         85.42611       49.21230       47.63122
H         87.88422       47.62834       48.42983
H         89.08886       49.43685       47.07737
H         87.49751       50.18893       46.73279
H         88.23045       49.00881       44.78823
H         86.81977       48.11906       45.44424
N         86.61059       50.04790       50.07362
C         86.73238       50.95918       51.19098
C         86.03694       50.40458       52.43418
O         86.04291       51.08653       53.44803
C         86.03476       52.26996       50.79393
C         86.55385       52.85606       49.47102
C         85.75070       54.06394       49.10862
O         84.56744       53.98126       48.84490
O         86.31161       55.26638       49.14289
H         85.65072       49.85195       49.78391
H         87.80132       51.15796       51.42605
H         86.14614       53.02226       51.60449
H         84.95922       52.04730       50.68464
H         86.48613       52.13226       48.63152
H         87.61562       53.12962       49.60924
N         85.38366       49.19956       52.42394
C         84.63640       48.68409       53.55280
H         83.57709       48.53982       53.24793
H         85.05580       47.70274       53.85605
H         84.65409       49.36808       54.42581
H         85.37873       48.60855       51.58278
Ca        84.94366       57.03043       49.18782
O         83.83621       54.91702       46.20610
H         83.19348       54.54460       45.55195
H         84.72511       54.66223       45.85381
O         83.07743       56.40819       51.34595
H         83.80632       55.75263       51.21448
H         83.34774       56.92533       52.14452
O         82.33185       58.81237       50.13911
H         82.63702       59.75291       50.18259
H         81.67933       58.72859       50.87802

Ca 1.0



