%chk=holoCaM.loop2.water1.frame223.chk
%nprocshared=20
%mem=10GB
%nosave
#b3lyp/svp scf=(tight,noincore,xqc) Test 
#IOP(5/87=12) Density=Current Pop=(MK,readradii) iop(6/33=2) iop(6/42=6)

holoCaM.loop2.water1.frame223 

   -2  1 
C         18.74105       69.67122       32.41690
C         17.62073       69.08369       33.22184
O         17.32396       67.90906       33.05677
H         19.67898       69.11608       32.62381
H         18.49708       69.59671       31.33685
H         18.90087       70.74186       32.66690
N         16.94566       69.85180       34.11973
C         15.84039       69.34856       34.92382
C         14.70784       68.91476       34.00417
O         14.26604       69.72436       33.20018
C         15.38129       70.45092       35.89811
C         14.41017       69.99254       36.94292
O         14.07191       68.82340       37.04232
O         13.93926       70.89755       37.81366
H         17.23629       70.83552       34.23707
H         16.21285       68.49777       35.52982
H         14.93558       71.29166       35.32351
H         16.26476       70.83792       36.45168
N         14.20741       67.64573       34.05227
C         13.22231       67.13403       33.10598
C         11.85171       66.90694       33.72534
O         10.92334       66.67921       32.96156
C         13.75708       65.85023       32.46355
H         14.55804       67.00976       34.77220
H         13.06482       67.88291       32.29992
H         14.73499       66.04883       31.97463
H         13.90445       65.06518       33.23772
H         13.05061       65.46804       31.69695
N         11.62325       66.99390       35.06994
C         10.27853       66.98656       35.65160
C          9.98273       68.28844       36.39229
O          8.87257       68.44159       36.88167
C         10.03815       65.71641       36.49171
C         10.94411       65.47291       37.66395
O         11.85147       66.36935       38.08566
O         10.88355       64.39293       38.22965
H         12.42291       67.10832       35.70715
H          9.51741       66.93575       34.84221
H         10.17816       64.85739       35.79846
H          8.98538       65.68999       36.84729
N         10.89843       69.30063       36.45228
C         10.62767       70.61338       37.00348
C         10.28346       70.60474       38.47151
O          9.22387       71.11412       38.80885
H         11.82196       69.18787       36.01993
H          9.80319       71.08255       36.42237
H         11.52642       71.25149       36.86664
N         11.13653       70.08814       39.40784
C         10.87116       70.18380       40.84708
C         11.94762       70.95637       41.61718
O         11.70813       71.25847       42.77792
C         10.61174       68.79587       41.46655
C         11.77571       67.83398       41.46066
N         11.63407       66.62331       42.04543
O         12.84211       68.13262       40.94659
H         11.99556       69.62357       39.08096
H          9.93386       70.76162       41.00138
H          9.76216       68.31963       40.93008
H         10.30364       68.94591       42.52409
H         10.74442       66.35700       42.49185
H         12.41485       65.95391       42.06407
N         13.13697       71.32269       41.05392
C         14.13222       72.15800       41.71279
C         15.47369       71.47613       41.91949
O         16.40352       72.16939       42.30711
H         13.35348       71.03442       40.09762
H         13.78103       72.52665       42.70041
H         14.28880       73.04684       41.06437
N         15.64955       70.13284       41.74794
C         16.91930       69.44213       41.99344
C         17.32386       68.59164       40.79177
O         16.59830       68.55770       39.80628
C         16.82222       68.60895       43.29914
C         16.75404       69.50856       44.54348
O         15.73684       67.71732       43.26704
H         14.83850       69.55650       41.48872
H         17.74493       70.17417       42.13602
H         17.74830       68.01124       43.42639
H         14.90400       68.23116       43.43673
H         15.85326       70.15664       44.52486
H         16.72504       68.88061       45.45893
H         17.65789       70.15379       44.59367
N         18.51098       67.90721       40.79874
C         19.02585       67.15569       39.65554
C         19.18031       65.67857       40.02066
O         19.99903       65.34917       40.86762
C         20.38159       67.78374       39.19386
C         20.17343       69.26361       38.77180
C         21.01561       66.97870       38.04675
C         21.46913       69.99386       38.40589
H         19.10847       67.95518       41.63743
H         18.31982       67.22763       38.80529
H         21.08677       67.75535       40.05481
H         19.72122       69.82440       39.61675
H         19.47390       69.31539       37.90835
H         20.36446       66.99797       37.15062
H         22.01343       67.37482       37.77592
H         21.19295       65.93371       38.35740
H         21.94981       69.55532       37.50846
H         21.23963       71.05381       38.16888
H         22.18045       69.96601       39.25833
N         18.41604       64.73130       39.39694
C         18.55135       63.28442       39.61207
C         19.79738       62.76784       38.90507
O         20.49115       63.56546       38.29545
C         17.32029       62.54505       39.03983
C         16.04478       63.13561       39.56237
O         15.21999       63.71797       38.67596
O         15.79397       63.14758       40.75588
H         17.69592       65.05654       38.73920
H         18.58980       63.07747       40.70471
H         17.35420       61.46242       39.28397
H         17.31953       62.65501       37.93195
N         20.14867       61.44908       38.90809
C         21.32426       60.97624       38.18146
C         21.18708       61.18247       36.66324
O         22.06245       61.83951       36.12101
C         21.69906       59.51847       38.53959
C         22.96538       59.09976       37.82341
C         24.18043       59.76276       38.07857
C         22.94109       58.05678       36.88065
C         25.34391       59.39423       37.39891
C         24.10888       57.69220       36.20214
C         25.30841       58.36114       36.46011
H         19.58594       60.77673       39.45229
H         22.18691       61.58532       38.53379
H         20.88436       58.82019       38.29779
H         21.86179       59.43365       39.63555
H         24.22964       60.56698       38.80123
H         22.01880       57.53317       36.66155
H         26.27268       59.91279       37.59911
H         24.08366       56.89319       35.47266
H         26.21059       58.08007       35.93255
N         20.15927       60.67716       35.89644
C         20.04571       60.88072       34.44999
C         20.18420       62.32922       34.03652
O         20.91960       62.63202       33.10670
C         18.61742       60.41339       34.12695
C         18.41928       59.31169       35.13040
C         19.01836       59.92909       36.39126
H         20.79441       60.23968       33.93270
H         17.87666       61.20150       34.39611
H         18.45426       60.13711       33.06294
H         17.37423       58.95228       35.24153
H         19.06215       58.45801       34.81439
H         18.31903       60.63625       36.88636
H         19.25747       59.09354       37.06283
N         19.49196       63.27796       34.71929
C         19.49702       64.70078       34.40807
C         20.91861       65.23340       34.43410
O         21.35694       65.80741       33.44716
C         18.58079       65.45421       35.40452
C         17.11420       64.97542       35.29445
C         16.18971       65.62336       36.28069
O         16.61406       66.58531       37.11916
O         15.02490       65.26347       36.32443
H         18.94576       62.95376       35.53032
H         19.08167       64.86120       33.38739
H         18.61909       66.54528       35.19295
H         18.94430       65.27828       36.44014
H         17.04325       63.88764       35.48620
H         16.73471       65.16961       34.26821
N         21.71690       65.02471       35.51352
C         23.09757       65.45114       35.55960
H         23.66736       64.97856       34.73101
H         23.15919       66.55572       35.47585
H         23.55525       65.13717       36.52267
H         21.34270       64.51366       36.31805
Ca        13.68276       65.35453       38.90307
O         15.25727       65.84446       41.35829
H         16.08249       65.58453       41.83979
H         14.56826       65.22415       41.70413

Ca 1.0



