%chk=holoCaM-CaMKII.loop1.water2.frame187.chk
%nprocshared=20
%mem=10GB
%nosave
#b3lyp/svp scf=(tight,noincore,xqc) Test 
#IOP(5/87=12) Density=Current Pop=(MK,readradii) iop(6/33=2) iop(6/42=6)

holoCaM-CaMKII.loop1.water2.frame187 

   0  1 
C          5.17386       63.46020       13.37752
C          4.67296       64.86750       13.48730
O          5.34358       65.69693       14.08237
H          6.14340       63.34311       13.90696
H          4.43406       62.76463       13.82730
H          5.31436       63.20353       12.30686
N          3.47098       65.20012       12.94411
C          2.89885       66.53664       13.00289
C          1.68282       66.47096       13.91012
O          0.55834       66.68880       13.48064
C          2.60566       67.00035       11.56146
C          2.18541       68.43623       11.44084
O          2.09633       69.23439       12.51846
O          1.95146       68.89403       10.33587
H          2.91830       64.46044       12.48261
H          3.61893       67.25716       13.45309
H          1.82619       66.34884       11.11233
H          3.53296       66.89042       10.96236
N          1.87880       66.13724       15.21599
C          0.81952       65.95899       16.20488
C         -0.00413       67.21981       16.35302
O         -1.21584       67.14964       16.19989
C          1.43466       65.56113       17.56844
C          2.06851       64.15709       17.52048
C          2.79730       63.82460       18.83017
C          3.30740       62.37202       18.88743
N          4.24945       62.05258       17.81221
H          2.85503       65.99798       15.51862
H          0.14038       65.13675       15.88379
H          0.64187       65.54627       18.34921
H          2.19474       66.31933       17.86112
H          2.80016       64.09420       16.69052
H          1.26148       63.41400       17.33835
H          2.10012       63.96607       19.68432
H          3.65169       64.52552       18.95927
H          2.44421       61.67190       18.84169
H          3.81423       62.22441       19.86705
H          5.05241       62.72207       17.81837
H          4.61465       61.08408       17.96163
H          3.77060       62.07192       16.88373
N          0.58803       68.41223       16.63909
C         -0.15955       69.65654       16.80533
C         -1.06210       69.92911       15.60240
O         -2.26096       70.05770       15.81123
C          0.78686       70.81309       17.20903
C          1.94108       71.06640       16.28201
O          3.19796       70.82410       16.70142
O          1.76068       71.52968       15.17236
H          1.61431       68.42796       16.74075
H         -0.83937       69.53595       17.67993
H          1.22373       70.52974       18.19230
H          0.21344       71.75259       17.36092
N         -0.59161       69.93426       14.32189
C         -1.46618       70.00467       13.15417
C         -1.23358       71.20538       12.26202
O         -1.92361       71.30192       11.25642
H          0.41155       69.79396       14.16207
H         -2.53622       70.02952       13.45198
H         -1.31322       69.08156       12.55441
N         -0.32251       72.17673       12.55552
C         -0.15997       73.37790       11.73714
C          0.29822       73.10451       10.30475
O          0.22633       74.02298        9.50005
C          0.77714       74.39919       12.42889
C          2.18077       73.91123       12.69852
O          3.06470       74.73824       13.28676
O          2.52497       72.77562       12.41945
H          0.22125       72.09596       13.42032
H         -1.16364       73.85419       11.66659
H          0.33092       74.68058       13.40683
H          0.83539       75.31626       11.80444
N          0.78812       71.89356        9.91193
C          1.16587       71.58496        8.53855
C          2.65750       71.38608        8.35935
O          3.05366       71.02464        7.25973
H          0.90704       71.14921       10.61018
H          0.86231       72.39235        7.83693
H          0.62387       70.66425        8.23401
N          3.55132       71.67312        9.35136
C          5.00189       71.60823        9.18055
C          5.64902       70.77168       10.27564
O          4.95521       70.33472       11.18158
C          5.58420       73.04339        9.17191
C          5.01191       73.88767        8.02102
O          5.37922       73.68647       10.40650
H          3.19878       72.02488       10.24686
H          5.25045       71.13196        8.20624
H          6.68046       72.98083        9.00540
H          4.42193       73.93913       10.47536
H          3.91262       74.01407        8.12603
H          5.47878       74.89462        8.02433
H          5.22130       73.40001        7.04556
N          6.97947       70.46147       10.22089
C          7.65194       69.60728       11.20286
C          9.00826       70.21362       11.57613
O          9.77632       70.51955       10.67346
C          7.83896       68.16764       10.62404
C          6.49531       67.62009       10.06864
C          8.38341       67.23273       11.72535
C          6.58188       66.21717        9.46532
H          7.51439       70.76104        9.39077
H          7.02015       69.49480       12.11346
H          8.56689       68.20461        9.78339
H          6.14564       68.28548        9.25106
H          5.73079       67.61813       10.87323
H          9.33935       67.61086       12.13019
H          7.65035       67.14993       12.55744
H          8.59233       66.21786       11.33480
H          6.82039       65.45765       10.23655
H          5.59687       65.94614        9.02957
H          7.34670       66.18894        8.66072
N          9.40789       70.32789       12.87923
C         10.74316       70.79898       13.27536
C         11.63569       69.62308       13.65515
O         11.18960       68.48930       13.61027
C         10.66350       71.81063       14.45511
C          9.86447       73.07216       14.11613
O         10.17824       71.19415       15.62281
H          8.77652       69.97307       13.61001
H         11.24263       71.30265       12.41878
H         11.68472       72.17346       14.69211
H          9.19404       71.13388       15.55375
H         10.32454       73.59429       13.25132
H          8.81654       72.81661       13.87130
H          9.87133       73.76034       14.98938
N         12.92782       69.83129       14.03919
C         13.84263       68.76597       14.45520
C         13.27640       67.98680       15.63413
O         13.20817       66.76781       15.57282
C         15.23239       69.34818       14.84662
C         15.97097       69.95002       13.64696
O         15.09086       70.32870       15.84510
H         13.27395       70.80095       14.05111
H         14.00049       68.05460       13.61322
H         15.85301       68.50262       15.22909
H         15.93755       70.34967       16.36250
H         16.96560       70.32255       13.97367
H         16.12808       69.17458       12.86818
H         15.41055       70.79933       13.20576
N         12.86032       68.64576       16.74625
C         12.36259       68.00337       17.96195
C         11.14692       67.14375       17.67665
O         11.13122       65.99530       18.09776
C         12.07137       69.08629       19.02390
C         13.40178       69.72823       19.47273
C         13.21030       70.92406       20.40670
C         14.55349       71.47214       20.93286
N         15.45698       71.90495       19.86165
H         12.89473       69.67524       16.71742
H         13.14685       67.33650       18.38715
H         11.58715       68.63430       19.91726
H         11.37966       69.84673       18.59679
H         13.96276       70.08450       18.58818
H         14.01156       68.95022       19.98299
H         12.59866       70.61574       21.28164
H         12.66626       71.72716       19.86253
H         15.06009       70.69335       21.54514
H         14.33617       72.33888       21.59459
H         16.29860       72.35443       20.28910
H         15.79135       71.08725       19.30318
H         14.98234       72.59690       19.23801
N         10.12417       67.60677       16.90834
C          8.96898       66.79067       16.52823
C          9.42028       65.48295       15.89360
O          9.00284       64.43434       16.36579
C          8.03902       67.58970       15.59044
C          7.35949       68.73195       16.36642
C          6.50481       69.60703       15.50195
O          5.45240       69.11055       14.83207
O          6.73016       70.80403       15.44429
H         10.20707       68.56368       16.53290
H          8.37997       66.52459       17.43502
H          7.24303       66.92686       15.19557
H          8.62744       67.97402       14.73151
H          8.12262       69.36983       16.85721
H          6.71757       68.29537       17.16127
N         10.32433       65.46353       14.87656
C         10.86359       64.24274       14.30922
H         11.95935       64.20974       14.49267
H         10.41555       63.33032       14.75642
H         10.68237       64.22723       13.21552
H         10.69118       66.35074       14.51797
Ca         4.19237       70.66590       13.80012
O          6.24671       72.94617       13.10446
H          6.45050       73.00798       14.06993
H          6.61438       73.78409       12.72767
O          4.55877       73.37351       15.98989
H          5.44464       73.21217       16.40157
H          3.93363       73.40951       16.75654

Ca 1.0



