%chk=holoCaM-CaMKII.loop4.water1.frame418.chk
%nprocshared=20
%mem=10GB
%nosave
#b3lyp/svp scf=(tight,noincore,xqc) Test 
#IOP(5/87=12) Density=Current Pop=(MK,readradii) iop(6/33=2) iop(6/42=6)

holoCaM-CaMKII.loop4.water1.frame418 

   -3  1 
C         63.65803       79.00056       39.97458
C         62.69110       79.10759       41.11675
O         61.60195       79.62811       40.93553
H         64.61005       78.52379       40.29555
H         63.21576       78.38660       39.16442
H         63.89366       80.01533       39.59370
N         63.03588       78.62338       42.33562
C         62.18826       78.69551       43.51845
C         61.93615       80.16317       43.90016
O         62.87680       80.92932       44.04987
C         62.88961       77.90021       44.62466
C         62.18214       77.79171       45.93079
O         62.89390       77.83344       46.91134
O         60.89550       78.11643       46.11365
H         63.95894       78.16751       42.42136
H         61.22662       78.17317       43.31084
H         63.87456       78.38358       44.81650
H         63.09128       76.86394       44.27488
N         60.65677       80.59707       44.06418
C         60.20530       81.97187       44.30829
C         59.76552       82.17114       45.75348
O         59.90678       83.28083       46.25123
C         59.04529       82.29029       43.29836
C         59.64630       82.51949       41.89114
C         58.15755       83.47318       43.73954
C         58.61180       82.58109       40.76400
H         59.93601       79.87974       43.99552
H         61.04047       82.69432       44.16390
H         58.36425       81.41198       43.26074
H         60.32654       81.68078       41.64782
H         60.24329       83.45742       41.89652
H         57.62945       83.21435       44.68416
H         58.75979       84.38970       43.89736
H         57.35230       83.67888       43.00756
H         57.90505       83.42422       40.88871
H         59.13673       82.72344       39.79611
H         58.04327       81.63082       40.71034
N         59.23640       81.15929       46.48690
C         58.82375       81.29496       47.88041
C         59.76838       80.54072       48.82107
O         59.53031       80.55906       50.02081
C         57.31208       80.98698       48.04056
C         56.80232       79.66792       47.52251
O         55.60926       79.42832       47.59527
O         57.60514       78.78797       46.90624
H         59.16181       80.23976       46.04592
H         58.92005       82.35310       48.21544
H         56.75772       81.77046       47.47571
H         57.02888       81.08826       49.11083
N         60.95508       80.02370       48.37108
C         62.04490       79.63940       49.26269
C         61.93379       78.27765       49.92872
O         62.69367       78.02958       50.85335
H         61.18922       80.10662       47.37514
H         62.15094       80.43445       50.02967
H         62.99816       79.64614       48.69183
N         61.06926       77.32638       49.48540
C         60.88244       76.01225       50.12019
C         61.77910       74.89985       49.55480
O         61.63513       73.75975       49.97420
C         59.38834       75.63165       49.99110
C         58.91518       75.47388       48.56839
O         57.60372       75.33331       48.30851
O         59.70470       75.48263       47.64276
H         60.48682       77.56833       48.67369
H         61.09675       76.09328       51.21000
H         58.79945       76.44726       50.46055
H         59.17037       74.68738       50.53367
N         62.73161       75.15431       48.61989
C         63.57775       74.14744       48.00082
C         62.83930       73.25023       47.02487
O         63.28716       72.13115       46.81812
H         62.90195       76.12055       48.35415
H         64.11822       73.55703       48.77118
H         64.35409       74.67127       47.39903
N         61.81373       73.72979       46.26056
C         61.22855       72.97015       45.15367
C         60.62734       73.87428       44.09129
O         60.46914       75.06701       44.31734
C         60.29056       71.82811       45.62944
C         59.03942       72.19077       46.45610
C         57.96934       72.90284       45.67110
N         56.88107       72.22133       45.24109
O         58.07328       74.09481       45.42826
H         61.55076       74.71289       46.39076
H         62.07769       72.49786       44.61364
H         60.89519       71.14736       46.26374
H         59.95657       71.23455       44.74908
H         59.28434       72.74351       47.38704
H         58.60892       71.21669       46.77919
H         56.77395       71.21364       45.41806
H         56.14631       72.68419       44.70131
N         60.37033       73.36962       42.84848
C         59.92239       74.19331       41.73497
C         58.63242       73.59592       41.18223
O         58.68747       72.57546       40.50881
C         61.04220       74.26378       40.64381
C         60.67830       75.22024       39.49757
C         62.40425       74.70430       41.21951
H         60.55939       72.37234       42.66671
H         59.72861       75.22990       42.08492
H         61.17627       73.24264       40.22308
H         60.68401       76.27472       39.84981
H         61.42816       75.12206       38.68186
H         59.68317       74.98702       39.07254
H         62.33785       75.71628       41.67378
H         62.76807       73.99023       41.98775
H         63.16896       74.73376       40.41169
N         57.42406       74.16327       41.46117
C         56.16064       73.68801       40.90562
C         56.11168       73.98447       39.42248
O         57.01209       74.62419       38.89748
C         54.94415       74.42362       41.53409
C         54.70508       74.15005       42.99146
N         55.33967       74.87047       43.93845
O         53.86807       73.32294       43.32250
H         57.40462       74.96218       42.09120
H         56.05854       72.59433       41.08352
H         54.01364       74.10990       41.01635
H         55.03117       75.51996       41.37839
H         56.01311       75.59480       43.67235
H         55.14101       74.71907       44.93886
N         55.03819       73.58685       38.68784
C         54.83646       74.01743       37.31726
C         54.59557       75.52421       37.26132
O         55.07261       76.15462       36.32910
C         53.66778       73.25162       36.67364
C         53.58547       73.54792       35.19685
C         54.67349       73.24044       34.35866
C         52.43705       74.13280       34.64290
C         54.61893       73.52285       32.99543
C         52.38128       74.40702       33.27222
C         53.47395       74.10235       32.44500
O         53.43421       74.35535       31.12226
H         54.33089       72.97758       39.12632
H         55.75846       73.76555       36.75055
H         52.72094       73.50629       37.19990
H         53.83830       72.15848       36.78890
H         55.57015       72.78299       34.75685
H         51.58769       74.37677       35.26905
H         55.46900       73.28604       32.36802
H         51.49006       74.85691       32.85487
H         52.65234       74.73072       30.69442
N         53.86608       76.17248       38.22302
C         53.69501       77.62911       38.22338
C         55.01433       78.38708       38.39015
O         55.05457       79.55394       38.02585
C         52.67339       78.11067       39.28181
C         53.07261       77.82481       40.73883
C         52.02300       78.34645       41.67453
O         51.18186       77.49167       42.28685
O         51.90929       79.54709       41.86452
H         53.41660       75.60926       38.95859
H         53.26967       77.89721       37.22993
H         51.70121       77.60669       39.08555
H         52.52252       79.20560       39.15798
H         54.04440       78.28950       41.00134
H         53.15482       76.73157       40.88109
N         56.13056       77.79361       38.91061
C         57.43123       78.45916       39.01917
C         58.34135       78.05826       37.86000
O         59.38013       78.68050       37.68754
C         58.10120       78.11261       40.37247
C         57.24144       78.55616       41.56622
C         57.77645       78.09880       42.88613
O         57.86631       78.96851       43.90048
O         58.02699       76.92644       43.08730
H         56.06830       76.81635       39.21630
H         57.29360       79.56091       38.94455
H         59.10707       78.58052       40.44431
H         58.23273       77.00719       40.41138
H         56.23554       78.11472       41.47052
H         57.14923       79.66169       41.58311
N         58.01126       77.04238       37.01370
C         58.79543       76.66314       35.86080
H         59.81633       76.36215       36.16984
H         58.30919       75.79933       35.35350
H         58.84225       77.50408       35.13715
H         57.17189       76.49328       37.18984
Ca        58.86215       77.25473       45.85319
O         55.91102       77.22844       45.48172
H         55.12373       77.50584       44.95116
H         55.59902       77.23047       46.41897

Ca 1.0



