%chk=holoCaM.loop4.water3.frame235.chk
%nprocshared=20
%mem=10GB
%nosave
#b3lyp/svp scf=(tight,noincore,xqc) Test 
#IOP(5/87=12) Density=Current Pop=(MK,readradii) iop(6/33=2) iop(6/42=6)

holoCaM.loop4.water3.frame235 

   -3  1 
C         35.11347       60.05163       52.63114
C         33.90492       60.91604       52.82597
O         33.55156       61.64617       51.91435
H         35.87943       60.29455       53.39623
H         34.82174       58.98472       52.72484
H         35.55221       60.21172       51.62220
N         33.22443       60.89029       54.00595
C         32.02413       61.68263       54.26749
C         31.63957       61.56973       55.73057
O         31.38838       60.46942       56.20672
C         30.85095       61.22225       53.36843
C         29.53651       61.91289       53.66381
O         28.57991       61.24507       54.02172
O         29.37837       63.24449       53.52218
H         33.59617       60.28650       54.75682
H         32.25565       62.74250       54.05170
H         30.71080       60.12899       53.51586
H         31.09499       61.38937       52.30040
N         31.56073       62.69348       56.49612
C         31.19432       62.70324       57.90610
C         29.87369       63.43752       58.14840
O         29.43002       63.44069       59.28557
C         32.34469       63.32366       58.76731
C         32.68064       64.77690       58.33110
C         33.59465       62.42632       58.69909
C         33.61077       65.52766       59.28374
H         31.75877       63.59653       56.04538
H         31.02189       61.66320       58.26324
H         31.99800       63.34221       59.82406
H         31.74599       65.37339       58.26151
H         33.16653       64.75640       57.33992
H         34.39820       62.80004       59.36453
H         33.34418       61.39753       59.03314
H         33.98979       62.37603       57.66138
H         33.78757       66.55073       58.88551
H         33.14010       65.61612       60.28494
H         34.59644       65.03085       59.37648
N         29.20225       64.09532       57.14946
C         27.96526       64.84130       57.37464
C         26.85478       64.40904       56.41177
O         25.81473       63.98541       56.90068
C         28.24295       66.36427       57.42124
C         28.95816       67.02376       56.27131
O         29.35728       66.39682       55.30758
O         29.20962       68.34433       56.34152
H         29.59862       64.11729       56.20434
H         27.57567       64.63063       58.39665
H         28.88329       66.54837       58.31306
H         27.27800       66.88841       57.58962
N         26.99879       64.44002       55.05305
C         25.98574       63.96139       54.11638
C         25.61423       64.95677       53.02535
O         24.79243       64.60209       52.19290
H         27.88849       64.74580       54.65344
H         25.05676       63.65962       54.64655
H         26.38984       63.05957       53.60977
N         26.15843       66.20736       52.94951
C         25.79001       67.18930       51.92197
C         26.21742       66.83967       50.48464
O         25.92567       67.63682       49.60256
C         26.33502       68.58985       52.29952
C         27.83432       68.69514       52.38395
O         28.54844       67.71982       52.22505
O         28.39492       69.88696       52.65964
H         26.80948       66.50207       53.68951
H         24.68116       67.28719       51.92627
H         25.91652       68.88582       53.28527
H         25.97587       69.32740       51.54918
N         26.87278       65.68959       50.14743
C         27.22749       65.36381       48.76754
C         28.44806       66.10411       48.22499
O         28.75786       65.90389       47.05972
H         27.05987       64.98107       50.86659
H         26.34348       65.53786       48.11392
H         27.46393       64.28017       48.70219
N         29.20635       66.93691       48.99870
C         30.39194       67.65605       48.52653
C         31.60141       67.32017       49.38375
O         31.51237       67.44999       50.59741
C         30.16823       69.16991       48.63603
C         28.98723       69.66032       47.79461
C         28.88734       71.16110       47.87089
N         28.68307       71.78443       49.05564
O         29.00037       71.82365       46.85061
H         28.93297       67.08199       49.97403
H         30.61095       67.42261       47.46082
H         31.09196       69.68140       48.28128
H         30.00381       69.44090       49.70197
H         28.03988       69.20873       48.15957
H         29.14092       69.35199       46.73657
H         28.58236       71.24642       49.92850
H         28.62914       72.81232       49.10230
N         32.78325       66.92183       48.82440
C         33.95868       66.62911       49.64480
C         34.46887       67.91220       50.30496
O         34.96106       68.79115       49.61085
C         35.10718       65.95000       48.83116
C         36.24778       65.52243       49.77113
C         34.63762       64.70427       48.06048
H         32.83322       66.81991       47.80112
H         33.64326       65.90237       50.42201
H         35.50716       66.67256       48.08567
H         36.66659       66.39741       50.29695
H         35.87884       64.79232       50.52522
H         37.07498       65.05013       49.20068
H         35.49205       64.25956       47.50652
H         34.23805       63.93719       48.75148
H         33.86409       64.95151       47.30774
N         34.37248       68.07866       51.65375
C         34.89072       69.24441       52.37970
C         36.42236       69.18995       52.39945
O         36.97572       68.17757       52.01247
C         34.31603       69.16471       53.82617
C         34.43938       70.32580       54.78298
N         33.93930       70.19616       56.03477
O         34.94195       71.38383       54.44936
H         33.88637       67.34329       52.18462
H         34.51324       70.16474       51.88242
H         34.74496       68.26690       54.31399
H         33.22739       69.01397       53.73211
H         33.49104       69.31678       56.33433
H         33.99489       70.97507       56.70669
N         37.17997       70.21912       52.86399
C         38.61516       70.11160       53.14172
C         38.85504       69.10494       54.26300
O         39.76793       68.29826       54.14877
C         39.16385       71.50277       53.52310
C         40.60029       71.50496       54.00375
C         41.64872       70.98374       53.22267
C         40.89735       72.05688       55.26169
C         42.96600       71.01385       53.70049
C         42.21091       72.09508       55.73019
C         43.25132       71.57292       54.95193
O         44.52436       71.60709       55.39541
H         36.71733       71.11011       53.06836
H         39.16504       69.78340       52.23090
H         38.51679       71.93841       54.31532
H         39.08512       72.15702       52.62742
H         41.45210       70.55128       52.25007
H         40.11109       72.47058       55.88044
H         43.76782       70.60665       53.09682
H         42.41674       72.53393       56.69829
H         44.75933       71.99573       56.25077
N         38.02785       69.06074       55.35011
C         38.16140       68.09980       56.45326
C         38.01906       66.63604       56.01634
O         38.16210       65.76207       56.86073
C         37.07447       68.36445       57.52824
C         37.17094       69.75429       58.17562
C         36.09182       69.92856       59.20761
O         35.27205       70.82594       59.09519
O         36.02649       69.09895       60.26673
H         37.25760       69.74273       55.38102
H         39.16589       68.22745       56.91280
H         37.17520       67.60890       58.33939
H         36.06869       68.24039       57.06494
H         37.06570       70.55234       57.41182
H         38.16029       69.86800       58.66639
N         37.70615       66.29235       54.73749
C         37.43679       64.93962       54.27833
C         38.47801       64.53800       53.24873
O         39.11990       63.51233       53.42808
C         35.99826       64.91367       53.72040
C         35.00706       65.29504       54.83817
C         33.58727       65.40633       54.38530
O         32.73075       65.73310       55.18847
O         33.21775       65.13698       53.12553
H         37.57039       67.02555       54.04182
H         37.48727       64.20472       55.11351
H         35.75117       63.90297       53.32702
H         35.91062       65.64761       52.88909
H         35.27888       66.27593       55.27371
H         35.06142       64.53183       55.64530
N         38.73890       65.32221       52.16787
C         39.76562       65.00866       51.20023
H         40.75208       64.93398       51.70595
H         39.52890       64.05349       50.68870
H         39.82400       65.81841       50.44039
H         38.21855       66.19237       52.03710
Ca        31.03675       64.66840       53.03081
O         29.46048       64.21777       50.73300
H         29.75658       64.20578       49.79005
H         29.01149       63.34576       50.86258
O         32.30031       63.80916       50.35209
H         31.98454       63.20386       49.63757
H         32.00857       63.36867       51.18395
O         30.96044       68.05873       53.53495
H         30.86607       68.98961       53.21096
H         31.18564       68.15386       54.49375

Ca 1.0



