%chk=holoCaM.loop2.water2.frame102.chk
%nprocshared=20
%mem=10GB
%nosave
#b3lyp/svp scf=(tight,noincore,xqc) Test 
#IOP(5/87=12) Density=Current Pop=(MK,readradii) iop(6/33=2) iop(6/42=6)

holoCaM.loop2.water2.frame102 

   -2  1 
C         66.97139       29.42583       17.40869
C         65.79970       30.17696       16.84262
O         65.02806       29.60034       16.09056
H         67.92015       29.97352       17.23268
H         66.81722       29.31204       18.50546
H         67.04329       28.40895       16.96499
N         65.59598       31.47910       17.18690
C         64.35711       32.20137       16.91519
C         64.50056       33.21539       15.78410
O         65.44923       33.98743       15.78556
C         63.94714       32.93684       18.20995
C         62.54087       33.46037       18.19150
O         62.10903       34.24284       19.19641
O         61.76371       33.13163       17.31450
H         66.30449       31.94082       17.77953
H         63.55605       31.47233       16.66053
H         64.65621       33.77709       18.37389
H         64.01716       32.25702       19.08465
N         63.53481       33.30275       14.81919
C         63.54644       34.25688       13.70991
C         62.34558       35.22134       13.71807
O         62.24740       36.02161       12.79783
C         63.52353       33.44349       12.40905
H         62.73671       32.65291       14.86930
H         64.47203       34.87135       13.72806
H         64.39858       32.76072       12.37110
H         62.59712       32.82751       12.36039
H         63.55412       34.10587       11.51867
N         61.37341       35.17204       14.67720
C         60.09069       35.88376       14.57733
C         59.53942       36.43281       15.89445
O         58.52492       37.11577       15.83431
C         59.06057       34.92727       13.93598
C         58.94037       33.60418       14.64246
O         59.51860       33.38825       15.83863
O         58.34798       32.68744       14.09631
H         61.47755       34.46016       15.39448
H         60.19801       36.75662       13.89595
H         59.42420       34.71748       12.91004
H         58.04814       35.38514       13.84867
N         60.10728       36.19022       17.11153
C         59.56467       36.73607       18.35003
C         58.19191       36.20775       18.75252
O         57.67019       36.70589       19.74053
H         60.97158       35.64061       17.17638
H         59.51215       37.84203       18.24855
H         60.25847       36.50614       19.18721
N         57.53679       35.21949       18.07060
C         56.19770       34.75282       18.44129
C         56.14868       33.94604       19.75530
O         55.06879       33.49166       20.10793
C         55.54415       33.97995       17.26689
C         56.13041       32.63614       16.96206
N         55.59424       31.87777       15.98446
O         57.07217       32.21194       17.60286
H         57.96874       34.82425       17.22707
H         55.54966       35.64917       18.55844
H         55.59773       34.60402       16.34745
H         54.47136       33.81596       17.50474
H         54.79908       32.21213       15.42239
H         55.96874       30.94355       15.80453
N         57.24772       33.75590       20.54913
C         57.20488       33.08530       21.84375
C         57.18551       31.56412       21.79887
O         57.15850       30.97753       22.87132
H         58.13913       34.19643       20.29802
H         56.33917       33.46990       22.42869
H         58.12188       33.35993       22.40862
N         57.19100       30.85074       20.63454
C         57.13588       29.38711       20.58293
C         58.18404       28.77862       19.66371
O         58.52886       29.38585       18.65946
C         55.74513       28.93108       20.08004
C         54.66149       29.27437       21.09938
O         55.40467       29.53368       18.85326
H         57.17364       31.36049       19.74983
H         57.28396       28.94612       21.59292
H         55.74324       27.82145       19.97422
H         56.06621       29.24977       18.17235
H         54.92093       28.84661       22.09236
H         54.54838       30.37572       21.19311
H         53.69405       28.83925       20.77024
N         58.62533       27.49913       19.87925
C         59.41721       26.77751       18.88840
C         58.52206       26.37935       17.73293
O         57.67819       25.50550       17.88224
C         60.13831       25.52595       19.48498
C         61.15715       25.90808       20.58974
C         60.83520       24.67699       18.39616
C         62.24074       26.89689       20.14362
H         58.33618       27.00713       20.73828
H         60.20034       27.45650       18.50040
H         59.37608       24.86034       19.94947
H         61.65272       24.98055       20.95075
H         60.62090       26.35754       21.45133
H         60.09579       24.28132       17.67254
H         61.59260       25.25844       17.83514
H         61.32452       23.78973       18.85133
H         62.80661       26.52899       19.26344
H         61.78332       27.87206       19.90415
H         62.95660       27.07092       20.97144
N         58.67556       26.99333       16.53407
C         57.95521       26.61573       15.33220
C         58.44075       25.29072       14.79121
O         59.40016       24.71922       15.28689
C         58.17854       27.68597       14.25023
C         57.49384       28.93415       14.64292
O         58.14148       29.85775       15.35795
O         56.31435       29.08546       14.37219
H         59.32786       27.78116       16.48019
H         56.86577       26.54474       15.55511
H         57.73844       27.41221       13.27907
H         59.26554       27.86406       14.09269
N         57.79597       24.76270       13.72180
C         58.19736       23.55162       13.02624
C         59.59258       23.67920       12.40702
O         60.40495       22.81928       12.71236
C         57.12083       23.20068       11.98629
C         57.53993       22.08440       11.07179
C         57.88224       20.81449       11.56749
C         57.60686       22.32953        9.69203
C         58.29260       19.80977       10.68536
C         58.01221       21.32514        8.81704
C         58.35712       20.06583        9.31169
H         56.96224       25.26664       13.38008
H         58.22365       22.71010       13.75602
H         56.89214       24.10292       11.38231
H         56.18660       22.92401       12.52335
H         57.84189       20.60481       12.62961
H         57.34782       23.30240        9.29270
H         58.56348       18.83372       11.06557
H         58.06023       21.52971        7.75617
H         58.67500       19.29059        8.62869
N         59.97903       24.67245       11.54168
C         61.33285       24.77888       11.01046
C         62.36625       25.08161       12.08779
O         63.54251       24.86619       11.83002
C         61.22921       25.90457        9.97165
C         60.13506       26.77606       10.55623
C         59.13552       25.72686       11.02834
H         61.63138       23.83371       10.50558
H         62.18085       26.42158        9.72169
H         60.80883       25.47538        9.03413
H         60.54926       27.29728       11.44975
H         59.70582       27.53780        9.87123
H         58.47407       26.17319       11.77156
H         58.53853       25.32231       10.18384
N         62.01959       25.59085       13.30426
C         62.99772       25.83442       14.36283
C         63.36300       24.54140       15.07836
O         64.40443       24.49802       15.71783
C         62.46141       26.89674       15.33939
C         62.29886       28.23441       14.58962
C         61.65996       29.31355       15.40007
O         61.25949       29.09026       16.66058
O         61.47794       30.40857       14.89616
H         61.03567       25.84164       13.47719
H         63.92649       26.24713       13.90635
H         63.16330       27.04083       16.19106
H         61.48485       26.55180       15.74549
H         61.66644       28.09528       13.69003
H         63.30085       28.58466       14.26257
N         62.55158       23.44811       15.01065
C         62.85754       22.15811       15.59005
H         63.85149       22.13745       16.08069
H         62.07710       21.89265       16.33342
H         62.84858       21.39350       14.78273
H         61.65366       23.52412       14.52909
Ca        59.32289       31.30895       16.53459
O         59.94590       31.85331       19.57398
H         60.41794       31.64085       20.41720
H         59.82234       32.83309       19.60272
O         62.33354       30.29140       18.76487
H         62.06040       30.11776       19.69791
H         62.84147       29.48542       18.49584

Ca 1.0



