%chk=holoCaM-CaMKII.loop2.water1.frame407.chk
%nprocshared=20
%mem=10GB
%nosave
#b3lyp/svp scf=(tight,noincore,xqc) Test 
#IOP(5/87=12) Density=Current Pop=(MK,readradii) iop(6/33=2) iop(6/42=6)

holoCaM-CaMKII.loop2.water1.frame407 

   -2  1 
C         52.88190       56.61258       38.45823
C         54.30424       56.22459       38.16423
O         55.17189       56.41935       39.00139
H         52.23739       55.70738       38.41790
H         52.78650       57.06734       39.46661
H         52.52373       57.33832       37.69812
N         54.60194       55.64131       36.97331
C         55.92444       55.14225       36.60584
C         56.97789       56.24038       36.55610
O         56.80349       57.20905       35.83086
C         55.82571       54.43240       35.23825
C         57.11871       53.82915       34.75723
O         57.72384       52.83628       35.43786
O         57.61054       54.21643       33.70983
H         53.82212       55.50071       36.31109
H         56.22021       54.39553       37.35926
H         55.46758       55.16860       34.48534
H         55.07497       53.61509       35.30582
N         58.13325       56.10456       37.27315
C         59.24404       57.05094       37.24581
C         60.53093       56.41872       36.71058
O         61.53332       57.11755       36.64996
C         59.49138       57.55125       38.67424
H         58.24788       55.26818       37.86019
H         58.99991       57.92195       36.60096
H         59.76958       56.70173       39.33764
H         60.31569       58.29605       38.69335
H         58.57539       58.03040       39.07796
N         60.59493       55.10594       36.33999
C         61.82323       54.42662       35.93991
C         61.70463       53.82422       34.54038
O         62.54101       54.13965       33.70482
C         62.24036       53.41051       37.03863
C         61.12467       52.62758       37.68954
O         60.88880       52.77763       39.00736
O         60.43199       51.86034       37.05309
H         59.74881       54.52535       36.39440
H         62.68000       55.13659       35.88303
H         62.69357       54.00284       37.86358
H         63.03258       52.73275       36.65211
N         60.70558       52.96203       34.20614
C         60.56722       52.32357       32.90235
C         60.58801       50.80416       32.99815
O         60.45027       50.15750       31.96974
H         59.99458       52.74681       34.90502
H         61.37808       52.63638       32.20925
H         59.60037       52.63994       32.45627
N         60.78336       50.16231       34.18801
C         60.90097       48.71364       34.33977
C         59.62286       47.91522       34.05110
O         59.69183       46.69524       34.11773
C         61.43320       48.37860       35.75684
C         60.51941       48.74813       36.90288
N         60.89041       48.45955       38.16887
O         59.45182       49.30585       36.70393
H         60.94983       50.72939       35.02308
H         61.68308       48.37116       33.62702
H         62.39952       48.90919       35.90724
H         61.63391       47.28828       35.81373
H         61.79043       47.99817       38.36277
H         60.27189       48.68972       38.95614
N         58.43815       48.50103       33.70998
C         57.25056       47.73627       33.34684
C         56.37854       47.31680       34.51824
O         55.32762       46.74792       34.25809
H         58.38646       49.52195       33.60476
H         57.53316       46.85195       32.73192
H         56.61694       48.37953       32.70067
N         56.72681       47.54503       35.81874
C         55.89582       47.15456       36.95681
C         55.65481       48.30400       37.92660
O         56.44613       49.23375       37.99304
C         56.57554       45.99449       37.72546
C         56.57722       44.71598       36.88750
O         57.90618       46.31257       38.05615
H         57.63441       47.97209       36.01914
H         54.89679       46.80571       36.61194
H         56.00276       45.76179       38.65275
H         57.88904       47.08919       38.67231
H         55.53430       44.42120       36.64125
H         57.14598       44.85901       35.94487
H         57.04658       43.89129       37.46394
N         54.58914       48.24149       38.77669
C         54.36800       49.17301       39.87944
C         55.41996       48.90912       40.94912
O         55.52519       47.77979       41.40905
C         52.92897       48.98904       40.47512
C         51.80425       49.28355       39.44183
C         52.70565       49.83566       41.74449
C         51.73341       50.73305       38.94270
H         53.92539       47.46066       38.65805
H         54.44317       50.22063       39.51939
H         52.81443       47.92502       40.78166
H         50.82473       49.04141       39.91060
H         51.91644       48.61677       38.56238
H         53.39482       49.51402       42.54689
H         52.86819       50.91549       41.55034
H         51.67558       49.68907       42.13411
H         50.88803       50.83120       38.22953
H         51.54670       51.43955       39.77756
H         52.66100       51.02553       38.41182
N         56.17966       49.92704       41.44329
C         57.08745       49.77817       42.57764
C         56.37074       50.21225       43.84304
O         55.22429       50.61767       43.76253
C         58.36285       50.62109       42.36827
C         59.13290       50.21749       41.14687
O         58.63434       50.32401       40.03774
O         60.39713       49.76965       41.27144
H         56.00015       50.87614       41.09836
H         57.37043       48.71026       42.71232
H         59.02992       50.50249       43.24820
H         58.09649       51.69681       42.28221
N         56.96149       50.11953       45.06421
C         56.25966       50.45890       46.29729
C         55.79869       51.91963       46.35537
O         54.61279       52.11418       46.58047
C         57.10520       50.10257       47.53547
C         56.33489       50.35967       48.81198
C         55.14333       49.65971       49.08314
C         56.79295       51.31337       49.73577
C         54.42377       49.91642       50.25318
C         56.06968       51.56605       50.90546
C         54.88596       50.86945       51.16340
H         57.92265       49.74856       45.12318
H         55.35350       49.81344       46.34338
H         58.04655       50.68607       47.52228
H         57.38325       49.02685       47.50015
H         54.76707       48.91772       48.39029
H         57.70412       51.86710       49.54761
H         53.50634       49.37735       50.45273
H         56.42574       52.30503       51.61091
H         54.32642       51.06824       52.06809
N         56.62830       53.00143       46.18869
C         56.16863       54.38199       46.32167
C         55.16256       54.74661       45.24694
O         54.32208       55.60362       45.48385
C         57.46391       55.19901       46.22391
C         58.32167       54.35361       45.30836
C         58.03075       52.94428       45.82216
H         55.70954       54.57431       47.31655
H         57.33686       56.26343       45.92957
H         57.96315       55.17053       47.21865
H         57.91229       54.45573       44.27959
H         59.39968       54.61734       45.27287
H         58.25208       52.24199       44.99515
H         58.63134       52.70938       46.72480
N         55.18430       54.12178       44.04363
C         54.24160       54.38904       42.96823
C         52.85430       53.96376       43.40965
O         51.93052       54.76187       43.34422
C         54.70234       53.65628       41.69011
C         56.11048       54.15323       41.28833
C         56.68071       53.49553       40.07980
O         57.80793       53.79950       39.72794
O         55.99243       52.59365       39.36067
H         55.90160       53.40062       43.89207
H         54.23900       55.47582       42.72288
H         53.98788       53.85843       40.86167
H         54.72563       52.56453       41.87685
H         56.84468       53.97103       42.09406
H         56.07729       55.24836       41.10833
N         52.65865       52.72733       43.94231
C         51.38847       52.28163       44.46503
H         50.63289       52.24593       43.65479
H         51.50160       51.26341       44.89835
H         51.05219       52.96629       45.27269
H         53.45413       52.08929       44.02544
Ca        57.03200       52.11763       37.44280
O         56.32766       50.39482       35.12468
H         55.55170       50.76033       35.61769
H         56.34430       50.89663       34.27199

Ca 1.0



