%chk=holoCaM-CaMKII.loop1.water2.frame95.chk
%nprocshared=20
%mem=10GB
%nosave
#b3lyp/svp scf=(tight,noincore,xqc) Test 
#IOP(5/87=12) Density=Current Pop=(MK,readradii) iop(6/33=2) iop(6/42=6)

holoCaM-CaMKII.loop1.water2.frame95 

   0  1 
C         13.37783       43.36346       51.87115
C         12.12324       44.13521       52.14494
O         11.39673       43.78999       53.06105
H         14.25495       44.02905       52.00600
H         13.46931       42.49770       52.56146
H         13.36172       42.98431       50.82691
N         11.79181       45.18981       51.35471
C         10.56774       45.96305       51.50602
C          9.50869       45.37960       50.57975
O          9.13366       46.00480       49.59699
C         10.87391       47.44351       51.18366
C          9.66652       48.32822       51.30982
O          9.72017       49.47438       50.90661
O          8.60237       47.91620       52.02098
H         12.40858       45.40919       50.55723
H         10.18904       45.89819       52.54968
H         11.23072       47.50053       50.13378
H         11.67843       47.83389       51.84509
N          8.99774       44.14429       50.83555
C          8.07190       43.46273       49.93754
C          6.71260       44.16751       49.80859
O          5.96112       43.78095       48.92493
C          7.90736       41.99832       50.42865
C          7.17384       41.02094       49.49324
C          7.93941       40.75498       48.18706
C          7.21743       39.69783       47.33990
N          7.96240       39.40361       46.11608
H          9.33563       43.64348       51.66984
H          8.56387       43.45257       48.94166
H          7.37856       42.02057       51.40705
H          8.91841       41.56727       50.60800
H          6.14367       41.37002       49.28214
H          7.09014       40.05422       50.03733
H          8.95897       40.38289       48.43287
H          8.03261       41.68976       47.59595
H          6.20252       40.06817       47.07442
H          7.10638       38.76004       47.92929
H          8.90468       39.01616       46.35368
H          7.43670       38.69116       45.55966
H          8.07110       40.27035       45.54126
N          6.31120       45.17993       50.64420
C          4.99521       45.82776       50.54470
C          5.06368       47.34259       50.27852
O          4.01295       47.95526       50.15234
C          4.11965       45.45112       51.76191
C          4.60257       45.90160       53.11127
O          5.63013       46.54550       53.24333
O          3.87554       45.58019       54.19822
H          6.93482       45.47312       51.40829
H          4.44083       45.41642       49.67299
H          4.03278       44.34173       51.78940
H          3.09728       45.86016       51.60989
N          6.24800       47.98711       50.06579
C          6.36282       49.34587       49.53958
C          5.97738       50.48376       50.46859
O          5.11226       51.26982       50.11042
H          7.11797       47.44865       50.12741
H          5.77434       49.40853       48.59848
H          7.42575       49.52115       49.26859
N          6.63688       50.67749       51.64344
C          6.45037       51.82880       52.52839
C          7.79342       52.46509       52.93488
O          7.80605       53.27012       53.85639
C          5.61119       51.40295       53.74983
C          6.10867       50.15999       54.42266
O          7.23480       50.10808       54.87508
O          5.30531       49.08527       54.51911
H          7.31546       49.96634       51.93881
H          5.85385       52.63328       52.04179
H          4.57534       51.20106       53.40126
H          5.55398       52.24053       54.47949
N          8.95029       52.21157       52.25336
C         10.23962       52.81129       52.58149
C         10.93028       52.23953       53.81752
O         12.01795       52.71336       54.11406
H          8.90679       51.64488       51.39968
H         10.11913       53.91376       52.68021
H         10.93426       52.63636       51.73061
N         10.38931       51.24590       54.58722
C         11.03861       50.69924       55.78751
C         11.04456       49.15110       55.78397
O         11.36558       48.61599       54.55231
C         10.29430       51.17152       57.06021
C         10.55923       52.64055       57.39268
O          8.91427       50.92895       56.95942
H          9.46701       50.87667       54.33369
H         12.09787       51.03508       55.84487
H         10.67503       50.60407       57.93657
H          8.51839       51.63987       56.38867
H         10.22752       53.30626       56.56980
H         10.00512       52.90285       58.31944
H         11.64380       52.79095       57.57659
N         11.90448       48.59057       56.83972
C         12.00266       47.11336       56.86984
C         11.70915       46.69419       58.29684
O         12.35483       47.20083       59.20596
C         13.41620       46.58386       56.42858
C         13.83253       47.09693       55.02343
C         13.42890       45.03691       56.44957
C         15.26188       46.71436       54.62427
H         12.83674       49.05911       56.91517
H         11.24580       46.65535       56.19258
H         14.16633       46.95752       57.16024
H         13.80816       48.20534       55.01872
H         13.12773       46.72051       54.24955
H         13.16037       44.64798       57.44909
H         12.70875       44.62990       55.70626
H         14.43472       44.62958       56.22824
H         15.98429       47.08912       55.38077
H         15.38250       45.61899       54.50983
H         15.50776       47.17651       53.64498
N         10.76610       45.75109       58.57026
C         10.44425       45.30848       59.92213
C         11.21879       44.05376       60.25844
O         11.94460       43.55319       59.41256
C          8.91741       45.04788       60.05191
C          8.09751       46.29962       59.75191
O          8.53643       44.02528       59.16670
H         10.31593       45.26732       57.78184
H         10.74562       46.08304       60.66234
H          8.69896       44.73502       61.09772
H          7.67197       43.65999       59.49112
H          7.01535       46.08032       59.87546
H          8.37743       47.12378       60.43994
H          8.26901       46.61129       58.70585
N         11.11794       43.48015       61.48326
C         11.73610       42.20193       61.82010
C         11.17226       41.10113       60.93954
O         11.93660       40.32156       60.39453
C         11.50346       41.83605       63.30713
C         12.28115       42.76214       64.24311
O         10.13384       41.89284       63.62944
H         10.54040       43.95688       62.19516
H         12.83890       42.24844       61.66396
H         11.91034       40.80980       63.48306
H          9.83607       40.97400       63.85646
H         12.11593       42.45263       65.29665
H         13.36917       42.68929       64.02682
H         11.96066       43.81749       64.12493
N          9.82455       40.98940       60.76932
C          9.19681       39.90372       60.02219
C          9.71046       39.85941       58.59379
O         10.18015       38.81474       58.16123
C          7.64974       39.99471       60.05443
C          7.10095       40.13944       61.49491
C          5.59862       39.84306       61.62478
C          5.23973       38.34683       61.50592
N          5.81979       37.54915       62.59305
H          9.23353       41.70700       61.20383
H          9.45564       38.94528       60.52555
H          7.28070       39.05604       59.59174
H          7.26966       40.84594       59.44624
H          7.25382       41.18939       61.81981
H          7.66462       39.50095       62.20155
H          5.04386       40.43170       60.86211
H          5.25667       40.18495       62.62631
H          5.55542       37.93447       60.52527
H          4.13272       38.25900       61.56335
H          5.47514       36.56552       62.51793
H          6.86158       37.52301       62.53356
H          5.52712       37.93435       63.52100
N          9.70998       40.98347       57.82725
C         10.25595       41.05133       56.47391
C         11.70881       40.59401       56.44229
O         12.03118       39.71287       55.65858
C         10.14223       42.48766       55.91486
C          8.67785       42.89456       55.66682
C          8.56705       44.26621       55.06207
O          8.98450       45.34577       55.74459
O          8.06490       44.41298       53.95966
H          9.34044       41.84495       58.25291
H          9.67709       40.38121       55.79937
H         10.66506       42.51153       54.94164
H         10.64566       43.20700       56.59794
H          8.09833       42.88352       56.61214
H          8.22337       42.15835       54.96824
N         12.62950       41.13334       57.28511
C         14.02562       40.74726       57.32156
H         14.65806       41.64765       57.17275
H         14.26024       40.30914       58.31513
H         14.28113       40.00373       56.53855
H         12.32150       41.83628       57.95750
Ca         9.32346       47.79455       54.08578
O          6.06783       46.02105       56.88500
H          5.63280       45.72092       56.04975
H          5.36825       46.53764       57.35833
O          7.54895       48.44459       57.08057
H          8.48897       48.46637       57.39024
H          7.02619       48.81776       57.83419

Ca 1.0



