%chk=holoCaM-CaMKII.loop1.water2.frame263.chk
%nprocshared=20
%mem=10GB
%nosave
#b3lyp/svp scf=(tight,noincore,xqc) Test 
#IOP(5/87=12) Density=Current Pop=(MK,readradii) iop(6/33=2) iop(6/42=6)

holoCaM-CaMKII.loop1.water2.frame263 

   0  1 
C         74.24766      110.35866       40.36185
C         74.98738      110.85568       39.15327
O         74.39664      111.57400       38.36287
H         73.37648      109.75141       40.03646
H         74.89477      109.72266       41.00236
H         73.88917      111.21904       40.96392
N         76.29548      110.52210       38.96179
C         77.09874      110.91498       37.80549
C         76.80179      110.01276       36.61191
O         77.63130      109.18856       36.25301
C         78.59662      110.91745       38.21488
C         79.57869      111.14230       37.08591
O         79.49919      112.19579       36.24663
O         80.46878      110.32592       36.91543
H         76.75629      109.96707       39.69943
H         76.86054      111.95496       37.53369
H         78.85136      109.94442       38.69068
H         78.74243      111.71200       38.97575
N         75.62646      110.12756       35.93043
C         75.28131      109.27998       34.79384
C         76.10469      109.59459       33.53984
O         75.91708      108.89340       32.55514
C         73.76756      109.38376       34.47282
C         72.89203      108.95710       35.67007
C         71.40034      108.93719       35.30288
C         70.49732      108.48660       36.46758
N         70.51579      109.42736       37.59047
H         74.94475      110.83055       36.23555
H         75.46899      108.22119       35.08037
H         73.54103      108.70259       33.62288
H         73.50743      110.42179       34.16758
H         73.05642      109.65825       36.51111
H         73.18796      107.93571       35.99471
H         71.25730      108.21730       34.46712
H         71.07669      109.94197       34.95496
H         70.80089      107.47495       36.81822
H         69.45495      108.41387       36.08523
H         70.25091      110.38469       37.26295
H         69.82049      109.11448       38.30608
H         71.45594      109.45118       38.04413
N         77.02176      110.61179       33.48366
C         77.79812      110.93123       32.28244
C         79.29795      110.68775       32.46095
O         80.03360      110.89823       31.50608
C         77.46769      112.36300       31.81166
C         77.73473      113.42093       32.84223
O         76.71581      114.16094       33.31778
O         78.86670      113.62746       33.24167
H         77.18024      111.20205       34.31177
H         77.50432      110.26352       31.44338
H         76.38572      112.39431       31.55765
H         78.03568      112.60158       30.88606
N         79.81599      110.15451       33.60547
C         81.19653      109.70563       33.72224
C         82.25399      110.78752       33.80171
O         83.41597      110.41857       33.90505
H         79.19108      109.93371       34.39015
H         81.42356      109.01935       32.87838
H         81.29251      109.11537       34.65957
N         81.96723      112.12220       33.80617
C         83.00732      113.14077       33.96953
C         83.64624      113.13930       35.36740
O         84.52551      113.96097       35.59240
C         82.49332      114.55006       33.57690
C         81.37847      115.12047       34.40840
O         80.82974      114.42723       35.41712
O         80.95167      116.23403       34.15069
H         80.99495      112.42398       33.67861
H         83.81365      112.92882       33.23101
H         82.14596      114.51409       32.52149
H         83.34925      115.25933       33.62226
N         83.30986      112.23473       36.33996
C         83.97961      112.17496       37.62807
C         83.48025      113.19744       38.62688
O         84.05762      113.26710       39.70001
H         82.61850      111.50124       36.15497
H         85.07842      112.26364       37.47353
H         83.79812      111.18070       38.09097
N         82.41133      114.00808       38.36578
C         81.90925      114.99551       39.31994
C         80.38296      115.04764       39.37873
O         79.69473      114.50250       38.53237
C         82.48699      116.40185       38.99944
C         83.90665      116.54710       39.54618
O         82.51580      116.65697       37.61625
H         81.94278      113.93644       37.45937
H         82.20550      114.69685       40.34958
H         81.89171      117.18965       39.51123
H         81.64403      116.38723       37.23632
H         84.28407      117.56927       39.33208
H         83.89694      116.41012       40.64993
H         84.59818      115.80995       39.09117
N         79.81234      115.66683       40.45811
C         78.38066      115.76982       40.73542
C         78.05560      117.22325       41.08373
O         78.74303      117.80543       41.90770
C         78.01290      114.79827       41.89890
C         78.22231      113.33405       41.41564
C         76.55453      115.00692       42.36072
C         77.97877      112.26489       42.47945
H         80.44754      116.03133       41.18270
H         77.77460      115.45313       39.86512
H         78.67867      115.00688       42.76539
H         79.26982      113.20350       41.07363
H         77.54797      113.13009       40.55353
H         75.84590      114.79480       41.53436
H         76.30976      114.35412       43.22146
H         76.39455      116.04576       42.71539
H         78.18381      111.26506       42.03989
H         78.65873      112.42183       43.34227
H         76.92598      112.26188       42.82486
N         76.97253      117.84379       40.52724
C         76.59880      119.23492       40.79686
C         75.29411      119.30466       41.58277
O         74.71779      118.27792       41.89910
C         76.45231      120.01361       39.45645
C         77.74154      120.02269       38.63123
O         75.37067      119.52783       38.69584
H         76.36713      117.29863       39.90467
H         77.37703      119.73582       41.41218
H         76.23710      121.07977       39.67513
H         75.64159      118.67614       38.26668
H         78.56941      120.47723       39.21414
H         78.02159      118.99086       38.34868
H         77.58695      120.61709       37.70506
N         74.76301      120.52355       41.90215
C         73.46146      120.71408       42.54534
C         72.36388      120.05236       41.73611
O         71.51592      119.38730       42.31639
C         73.12411      122.22363       42.68669
C         74.06751      122.94070       43.65738
O         73.16808      122.84967       41.42837
H         75.29010      121.36162       41.62636
H         73.46626      120.26944       43.56597
H         72.09209      122.29701       43.10663
H         72.65449      123.69557       41.50441
H         73.76081      124.00415       43.75349
H         74.00938      122.46974       44.66121
H         75.11745      122.91171       43.30236
N         72.33115      120.18671       40.38211
C         71.30519      119.59077       39.53580
C         71.26941      118.08637       39.72855
O         70.21817      117.54580       40.04113
C         71.56290      119.89459       38.03806
C         71.57919      121.40144       37.70915
C         71.84247      121.68585       36.22096
C         70.68244      121.25869       35.30782
N         70.96920      121.59269       33.91313
H         73.09271      120.72008       39.94028
H         70.31318      120.01817       39.80582
H         70.75623      119.40150       37.45695
H         72.53549      119.45499       37.72459
H         72.40090      121.89092       38.26909
H         70.62434      121.87734       38.01935
H         72.78596      121.18637       35.90725
H         71.98028      122.78303       36.10463
H         69.75736      121.78849       35.62730
H         70.50495      120.16569       35.38126
H         70.15026      121.32309       33.32161
H         71.13444      122.62063       33.81249
H         71.81156      121.06607       33.58569
N         72.39859      117.34908       39.54100
C         72.42630      115.89116       39.62159
C         72.10421      115.36913       41.01594
O         71.78485      114.19356       41.13301
C         73.80436      115.36814       39.17177
C         74.08528      115.71324       37.69437
C         75.47738      115.32735       37.31174
O         76.42792      115.84407       37.87046
O         75.70109      114.41308       36.35668
H         73.26261      117.85447       39.29787
H         71.65357      115.49651       38.92472
H         73.85993      114.26358       39.29275
H         74.57378      115.82506       39.82976
H         73.98486      116.79973       37.50021
H         73.35260      115.17543       37.05587
N         72.17986      116.16196       42.12026
C         71.83954      115.68421       43.44260
H         70.76574      115.40181       43.47332
H         72.46462      114.80600       43.70969
H         72.01479      116.48675       44.19110
H         72.50166      117.13150       42.03279
Ca        77.82569      113.69443       36.24149
O         77.48472      116.86276       34.31887
H         77.69364      116.67959       33.36860
H         77.57733      117.84437       34.40660
O         79.47983      117.36527       36.56984
H         79.83623      118.15271       37.05313
H         78.63345      117.14392       37.03090

Ca 1.0



