%chk=holoCaM-CaMKII.loop2.water1.frame276.chk
%nprocshared=20
%mem=10GB
%nosave
#b3lyp/svp scf=(tight,noincore,xqc) Test 
#IOP(5/87=12) Density=Current Pop=(MK,readradii) iop(6/33=2) iop(6/42=6)

holoCaM-CaMKII.loop2.water1.frame276 

   -2  1 
C         46.01768       35.06508       61.60183
C         46.77750       35.37135       60.34702
O         47.34964       36.44516       60.22978
H         44.95431       34.86423       61.35285
H         46.45209       34.16234       62.08228
H         46.07075       35.91271       62.31600
N         46.83058       34.44134       59.35864
C         47.57509       34.62270       58.11984
C         47.01232       35.79353       57.32598
O         45.81073       35.82525       57.09803
C         47.53337       33.31045       57.31651
C         48.48874       33.27697       56.16511
O         49.29365       34.31508       55.88278
O         48.57000       32.26221       55.50236
H         46.33664       33.54769       59.51537
H         48.63417       34.80519       58.38015
H         46.50015       33.10980       56.95908
H         47.84192       32.47862       57.98778
N         47.82995       36.78654       56.86389
C         47.33951       37.97580       56.17694
C         47.58473       37.87695       54.68406
O         46.60765       37.87398       53.94668
C         47.97351       39.22774       56.78890
H         48.84646       36.69056       56.99234
H         46.23887       38.06688       56.31822
H         49.07929       39.20544       56.68329
H         47.58348       40.14077       56.29125
H         47.72729       39.28223       57.87122
N         48.83800       37.76750       54.14776
C         49.03896       37.59617       52.70335
C         48.48048       36.26477       52.19142
O         48.47097       36.06539       50.98498
C         50.52591       37.77854       52.30743
C         51.47096       36.77930       52.90913
O         52.67521       36.94504       52.79935
O         51.01053       35.75794       53.64576
H         49.65438       37.81608       54.77609
H         48.48955       38.41789       52.19239
H         50.83590       38.78771       52.65776
H         50.64041       37.75255       51.20251
N         47.99012       35.31303       53.04188
C         47.39550       34.06366       52.60694
C         48.38108       33.19842       51.86662
O         48.10499       32.81943       50.73788
H         48.01246       35.46689       54.05654
H         46.50306       34.27509       51.97884
H         47.05023       33.50181       53.50264
N         49.55527       32.83991       52.45553
C         50.54866       31.97686       51.82491
C         50.80162       30.71269       52.64459
O         51.79379       30.04098       52.39664
C         51.85152       32.76730       51.54065
C         52.61397       33.30583       52.72852
N         53.79301       33.93754       52.52966
O         52.18651       33.18330       53.86343
H         49.75433       33.20164       53.39877
H         50.20124       31.63687       50.82535
H         51.60573       33.62466       50.87659
H         52.53843       32.09635       50.98118
H         54.17543       34.04977       51.57959
H         54.32969       34.30970       53.32580
N         49.92331       30.29039       53.60323
C         50.13569       29.09505       54.40763
C         51.30011       29.20460       55.37941
O         51.60944       28.20452       56.01113
H         49.03860       30.79402       53.73286
H         50.30207       28.23594       53.72238
H         49.22235       28.88119       55.00480
N         51.98892       30.36952       55.55911
C         53.16345       30.51128       56.41845
C         52.87617       31.54397       57.51085
O         51.82872       32.17728       57.45747
C         54.35502       30.87978       55.49350
C         55.71780       30.96393       56.17998
O         54.44448       29.90681       54.48062
H         51.68558       31.20555       55.05122
H         53.38400       29.54308       56.91855
H         54.13170       31.87402       55.04170
H         54.58903       30.38197       53.62021
H         56.49374       31.19415       55.41889
H         55.75471       31.77786       56.92457
H         55.96779       29.99608       56.66276
N         53.72355       31.72287       58.57118
C         53.43346       32.63325       59.67926
C         54.55218       33.66352       59.82121
O         55.70465       33.26547       59.92943
C         53.25866       31.85085       61.02235
C         52.42462       30.55456       60.84132
C         52.60159       32.78189       62.06582
C         52.25895       29.74863       62.13455
H         54.57333       31.14487       58.64067
H         52.47174       33.15038       59.49476
H         54.26169       31.53587       61.38803
H         52.95824       29.89132       60.12662
H         51.42198       30.78579       60.42270
H         52.53531       32.30685       63.06358
H         53.19104       33.70496       62.19764
H         51.57594       33.06465       61.73856
H         53.25024       29.52713       62.58552
H         51.63244       30.29125       62.87104
H         51.74958       28.78812       61.91151
N         54.27643       34.99840       59.92021
C         55.29014       36.01404       60.21202
C         55.21569       36.38801       61.68324
O         54.35369       35.87835       62.37938
C         55.07073       37.28611       59.36104
C         55.07922       37.03687       57.88455
O         54.11312       36.28923       57.32657
O         55.92176       37.56224       57.17451
H         53.29370       35.29367       59.92059
H         56.30866       35.61031       60.02042
H         55.87171       38.01893       59.59785
H         54.09347       37.74914       59.62041
N         56.09841       37.26085       62.24450
C         56.02405       37.64246       63.65172
C         54.70445       38.36590       63.95632
O         54.01008       37.89332       64.84418
C         57.26936       38.45266       64.07672
C         57.24488       38.82118       65.54075
C         57.32631       37.82818       66.53349
C         57.15018       40.16952       65.92577
C         57.31874       38.18241       67.88662
C         57.13495       40.51790       67.27902
C         57.22220       39.52592       68.25883
H         56.85449       37.64910       61.65956
H         56.05915       36.71008       64.26116
H         57.37385       39.36171       63.46995
H         58.18598       37.85544       63.87930
H         57.40715       36.78310       66.26204
H         57.08160       40.95105       65.17922
H         57.39018       37.41565       68.64732
H         57.05765       41.55813       67.56730
H         57.21609       39.79889       69.30610
N         54.25611       39.47460       63.27250
C         52.96805       40.12508       63.51837
C         51.79969       39.16108       63.59790
O         50.99148       39.26333       64.50993
C         52.78357       41.02867       62.28743
C         54.19991       41.43787       61.99391
C         54.94027       40.11723       62.16368
H         53.04190       40.73808       64.44424
H         52.45267       40.42839       61.40785
H         52.06281       41.86181       62.42970
H         54.36500       41.93467       61.01415
H         54.51965       42.13072       62.80635
H         54.84865       39.47192       61.26660
H         55.99090       40.37839       62.34898
N         51.66536       38.19161       62.65451
C         50.55298       37.24809       62.59133
C         50.49119       36.42869       63.86468
O         49.46182       36.42902       64.52428
C         50.70255       36.31876       61.36417
C         50.75484       37.11899       60.04756
C         51.01323       36.28209       58.83938
O         51.30514       36.91506       57.69547
O         51.02300       35.06305       58.88146
H         52.41634       38.12745       61.95399
H         49.60013       37.81143       62.46796
H         49.85018       35.60516       61.32579
H         51.63982       35.73416       61.46760
H         51.59075       37.83969       60.06756
H         49.81802       37.69617       59.89639
N         51.58214       35.72887       64.28038
C         51.63378       34.94464       65.49412
H         52.41900       35.36119       66.16043
H         50.66813       34.94553       66.03940
H         51.90140       33.89795       65.23979
H         52.43802       35.76893       63.72007
Ca        51.61895       35.83465       55.77546
O         54.99669       34.15179       55.89882
H         55.82816       34.35180       55.40140
H         55.28480       34.07815       56.84303

Ca 1.0



