%chk=holoCaM.loop2.water1.frame239.chk
%nprocshared=20
%mem=10GB
%nosave
#b3lyp/svp scf=(tight,noincore,xqc) Test 
#IOP(5/87=12) Density=Current Pop=(MK,readradii) iop(6/33=2) iop(6/42=6)

holoCaM.loop2.water1.frame239 

   -2  1 
C         62.72680      101.68122       51.65785
C         62.06662      102.78091       52.43386
O         60.84671      102.79689       52.51499
H         63.83294      101.78007       51.67652
H         62.45413      100.70195       52.10414
H         62.38539      101.71331       50.60286
N         62.81686      103.73586       53.04931
C         62.23325      104.80064       53.85173
C         61.34515      105.68823       52.98188
O         61.83579      106.20487       51.98757
C         63.35773      105.60958       54.53694
C         62.77730      106.49624       55.58381
O         62.88317      107.70509       55.50586
O         62.09728      105.94592       56.60065
H         63.84451      103.68057       52.96990
H         61.63487      104.31910       54.65123
H         63.92980      106.19315       53.78254
H         64.05832      104.92098       55.05680
N         60.02521      105.88882       53.28464
C         59.09651      106.61020       52.41510
C         58.60128      107.93294       52.99574
O         57.93624      108.65384       52.26442
C         57.91467      105.69286       52.08111
H         59.65031      105.48068       54.14703
H         59.60690      106.87107       51.46287
H         57.35794      105.42879       53.00709
H         57.21606      106.18844       51.37408
H         58.28139      104.75492       51.61158
N         58.90672      108.34775       54.26040
C         58.59494      109.68794       54.77125
C         59.88512      110.45223       55.10991
O         59.79297      111.57521       55.58511
C         57.58417      109.61784       55.94578
C         58.03973      108.71781       57.04763
O         59.20151      108.95687       57.66395
O         57.41909      107.69896       57.30566
H         59.42837      107.71398       54.88322
H         58.08718      110.30094       53.99431
H         56.62201      109.22353       55.54947
H         57.39061      110.63736       56.34375
N         61.11898      109.94722       54.79813
C         62.36942      110.68679       54.92040
C         62.91716      110.89398       56.32454
O         63.97772      111.49689       56.41516
H         61.18457      109.03990       54.31937
H         62.25658      111.66858       54.41138
H         63.15451      110.12526       54.36743
N         62.29649      110.45352       57.45902
C         62.82641      110.74429       58.79722
C         64.06962      109.92359       59.18475
O         64.58133      110.14061       60.27438
C         61.70935      110.67101       59.86861
C         61.17300      109.30427       60.19885
N         60.16530      109.17608       61.09132
O         61.64476      108.30946       59.68175
H         61.38584      109.98941       57.37379
H         63.11780      111.81918       58.80501
H         60.86511      111.30806       59.52360
H         62.09524      111.10739       60.81515
H         59.75527      110.00674       61.54260
H         59.79117      108.24607       61.32976
N         64.63958      109.00619       58.34608
C         65.89373      108.31635       58.63886
C         65.77895      107.08055       59.51948
O         66.79791      106.43309       59.71474
H         64.24744      108.87095       57.40603
H         66.63698      109.03535       59.04821
H         66.30487      107.94708       57.67406
N         64.59539      106.65877       60.04636
C         64.42295      105.40296       60.78457
C         63.42819      104.51099       60.04184
O         62.95004      104.91229       58.99068
C         63.99042      105.69419       62.24106
C         65.11150      106.39714       63.01683
O         62.83251      106.48647       62.25115
H         63.75863      107.22926       59.89052
H         65.37580      104.82952       60.82879
H         63.79257      104.72597       62.75420
H         62.44197      106.41315       63.16103
H         66.02272      105.76011       63.03046
H         65.36202      107.37661       62.55893
H         64.79529      106.56492       64.06828
N         63.09826      103.26656       60.50494
C         62.24552      102.33655       59.76302
C         60.94481      102.04998       60.51053
O         60.97522      101.45469       61.57853
C         63.05432      101.03506       59.44001
C         64.16021      101.36196       58.39838
C         62.14822       99.90301       58.92609
C         65.05843      100.17639       58.03177
H         63.49759      102.94051       61.39754
H         61.95203      102.77467       58.79212
H         63.52166      100.66365       60.37941
H         64.81489      102.16334       58.80075
H         63.68800      101.73811       57.46292
H         62.72131       98.97217       58.75685
H         61.39888       99.62799       59.69260
H         61.64324      100.20638       57.98956
H         64.48771       99.36581       57.53419
H         65.83167      100.51206       57.30929
H         65.56087       99.77657       58.93674
N         59.74764      102.40491       59.94467
C         58.44098      101.95482       60.42519
C         58.19620      100.52965       59.94262
O         59.02458      100.00976       59.21213
C         57.32129      102.85517       59.85438
C         57.47889      104.28985       60.26807
O         57.46082      104.62409       61.57241
O         57.60402      105.16179       59.42270
H         59.76077      102.92788       59.06099
H         58.41347      102.00427       61.53612
H         56.33169      102.50828       60.21881
H         57.32386      102.78887       58.74210
N         57.08103       99.82392       60.29211
C         56.87470       98.45785       59.81804
C         56.70436       98.38482       58.29604
O         57.45464       97.62645       57.69873
C         55.71498       97.73117       60.53767
C         55.62753       96.30335       60.03832
C         56.69013       95.40640       60.25860
C         54.50632       95.86929       59.31009
C         56.63510       94.10629       59.75156
C         54.45727       94.56670       58.80253
C         55.52129       93.68724       59.02118
H         56.39614      100.24668       60.93689
H         57.78665       97.88213       60.09368
H         54.75671       98.24796       60.37033
H         55.88585       97.72680       61.63558
H         57.56636       95.71403       60.81496
H         53.68047       96.54263       59.11713
H         57.46068       93.42663       59.91947
H         53.59763       94.24103       58.23170
H         55.48488       92.68187       58.62251
N         55.76229       99.09431       57.58592
C         55.59337       99.00566       56.13486
C         56.89848       99.08296       55.37571
O         57.13901       98.28386       54.48204
C         54.74422      100.24167       55.79888
C         53.86526      100.34772       57.01598
C         54.86323      100.09101       58.14142
H         55.04111       98.07135       55.88750
H         55.37616      101.16032       55.79792
H         54.21523      100.18551       54.82356
H         53.29487      101.29612       57.11212
H         53.14638       99.49741       56.97806
H         55.45410      100.99968       58.38457
H         54.28581       99.76472       59.01977
N         57.79730      100.03754       55.72274
C         59.07748      100.25531       55.06710
C         59.92829       99.00005       55.15759
O         60.33491       98.48792       54.12423
C         59.77880      101.46778       55.71879
C         58.93707      102.75925       55.56830
C         59.50407      103.90866       56.34025
O         60.66691      103.78611       56.99915
O         58.89088      104.96207       56.39433
H         57.54777      100.63010       56.52719
H         58.90922      100.50080       53.99425
H         60.77854      101.62637       55.25747
H         59.91896      101.25518       56.80036
H         57.91489      102.61894       55.96626
H         58.84727      103.03167       54.49511
N         60.19836       98.42809       56.36422
C         60.95357       97.20185       56.52677
H         61.83742       97.39140       57.16841
H         60.31225       96.44206       57.02229
H         61.30430       96.78664       55.55949
H         59.82800       98.86484       57.21603
Ca        60.52474      107.17176       57.57724
O         60.52257      105.32751       61.10598
H         60.03084      105.75958       60.36431
H         60.16461      105.75240       61.92536

Ca 1.0



