%chk=holoCaM.loop3.water2.frame390.chk
%nprocshared=20
%mem=10GB
%nosave
#b3lyp/svp scf=(tight,noincore,xqc) Test 
#IOP(5/87=12) Density=Current Pop=(MK,readradii) iop(6/33=2) iop(6/42=6)

holoCaM.loop3.water2.frame390 

   0  1 
C         70.74234       61.27958       84.49066
C         69.94722       60.24591       85.21637
O         68.97906       59.74765       84.66034
H         71.78884       60.92964       84.37995
H         70.31107       61.45669       83.48154
H         70.71970       62.22942       85.06291
N         70.31050       59.84334       86.46600
C         69.53848       58.84207       87.17994
C         68.21855       59.48163       87.60072
O         68.25914       60.42344       88.38251
C         70.32591       58.31222       88.40158
C         69.77217       57.00788       88.89282
O         70.20939       56.50408       89.91260
O         68.85076       56.35200       88.16305
H         71.16647       60.23312       86.89056
H         69.39586       57.99248       86.47548
H         70.32631       59.07735       89.21027
H         71.38186       58.10918       88.12479
N         67.02322       59.09150       87.06829
C         65.80503       59.88326       87.27132
C         65.03218       59.46836       88.52333
O         64.05996       60.13560       88.84959
C         64.90885       59.87710       86.00450
C         65.65830       60.18995       84.68367
C         66.47281       61.49753       84.65112
C         65.62252       62.77084       84.67773
N         66.48281       63.95589       84.63263
H         67.01962       58.32520       86.37926
H         66.09733       60.94652       87.41911
H         64.08335       60.60886       86.14345
H         64.45049       58.87070       85.88782
H         64.93443       60.18568       83.83983
H         66.36775       59.36053       84.48934
H         67.05618       61.50620       83.70389
H         67.20065       61.51227       85.48813
H         65.00368       62.80334       85.59926
H         64.94725       62.77443       83.79306
H         67.08855       63.93606       83.77929
H         65.88936       64.81570       84.60309
H         67.08745       63.99097       85.48584
N         65.40942       58.39451       89.27976
C         64.75457       57.98330       90.52669
C         65.71938       58.03210       91.71682
O         65.27172       57.79529       92.82990
C         64.07588       56.59845       90.35606
C         64.95492       55.60102       89.67133
O         65.89681       54.92977       90.34852
O         65.00437       55.60782       88.45040
H         66.21291       57.83183       88.96683
H         63.93961       58.69311       90.79044
H         63.19376       56.73757       89.69385
H         63.68972       56.19918       91.31820
N         67.02746       58.40395       91.58029
C         67.92326       58.65290       92.69897
C         68.22122       57.44983       93.56233
O         68.02724       57.53925       94.76694
H         67.41159       58.61115       90.64930
H         67.50196       59.47061       93.32587
H         68.89466       59.01314       92.29626
N         68.74588       56.30967       93.02897
C         69.21116       55.18498       93.84274
C         70.66928       54.82600       93.52499
O         71.15170       53.82993       94.04438
C         68.24394       53.98827       93.71015
C         68.35063       53.21890       92.42485
N         68.49303       51.87341       92.43555
O         68.28757       53.80582       91.36443
H         68.83008       56.24619       92.00510
H         69.16186       55.45448       94.92094
H         67.20688       54.37323       93.82379
H         68.42381       53.28449       94.55185
H         68.52751       51.34988       93.32231
H         68.54831       51.34572       91.55293
N         71.44657       55.61864       92.71997
C         72.84791       55.34709       92.42690
C         73.08343       54.29978       91.35019
O         74.24585       54.00929       91.09854
H         71.07594       56.51357       92.37508
H         73.37145       55.07060       93.36865
H         73.32044       56.28159       92.05438
N         72.06863       53.69340       90.66793
C         72.27686       52.63709       89.67475
C         71.61496       52.96792       88.34719
O         70.42756       53.26724       88.33165
C         71.69503       51.32995       90.23339
C         72.49463       50.86596       91.42593
C         71.93805       50.86570       92.71316
C         73.82037       50.43230       91.25297
C         72.69462       50.44701       93.81061
C         74.57366       50.00675       92.34874
C         74.01293       50.01481       93.63343
O         74.72943       49.61051       94.70095
H         71.09405       53.94339       90.89397
H         73.35781       52.46669       89.47958
H         71.71806       50.52409       89.46749
H         70.63410       51.50936       90.50491
H         70.92674       51.20062       92.87301
H         74.26925       50.41838       90.26736
H         72.25481       50.46028       94.79969
H         75.59202       49.67253       92.19678
H         75.64320       49.30247       94.61854
N         72.32169       52.87346       87.17910
C         71.74863       53.10469       85.85460
C         71.81842       51.81308       85.03937
O         72.90795       51.36986       84.69963
C         72.49216       54.28634       85.15809
C         72.26714       55.58886       85.97344
C         72.03915       54.46659       83.69520
C         73.03761       56.79966       85.44476
H         73.31622       52.59888       87.22171
H         70.67982       53.38900       85.94544
H         73.57985       54.04881       85.14133
H         72.60149       55.42797       87.02043
H         71.18235       55.83574       85.99322
H         72.21319       53.54222       83.10950
H         70.96688       54.73514       83.64719
H         72.62978       55.25344       83.18582
H         74.12717       56.58632       85.43436
H         72.70361       57.08487       84.42726
H         72.85124       57.67015       86.10780
N         70.67175       51.15206       84.70244
C         70.62630       49.93930       83.88233
C         70.89298       50.25425       82.41447
O         71.10182       51.40728       82.08070
C         69.23904       49.27225       84.02190
O         68.22090       50.10264       83.52598
H         69.78477       51.51547       85.07609
H         71.37424       49.20962       84.26278
H         69.05849       49.01201       85.09141
H         69.20030       48.31070       83.46969
H         67.74095       50.48554       84.30554
N         70.85939       49.27303       81.46813
C         70.96224       49.53911       80.03363
C         69.79320       50.38948       79.55942
O         70.01683       51.39864       78.90672
C         70.97508       48.22410       79.24535
H         70.72176       48.29848       81.77661
H         71.92300       50.05616       79.81131
H         70.04457       47.64232       79.41639
H         71.07053       48.43419       78.15743
H         71.84588       47.60839       79.55539
N         68.51290       50.03840       79.87940
C         67.32555       50.78058       79.45718
C         67.42449       52.25106       79.81588
O         67.28000       53.08435       78.93175
C         66.07115       50.17072       80.09995
H         68.37979       49.20402       80.47186
H         67.21546       50.69376       78.35301
H         65.16158       50.71625       79.76904
H         65.96751       49.10601       79.80005
H         66.13186       50.21931       81.20892
N         67.70321       52.64021       81.08962
C         67.85026       54.03711       81.49054
C         68.91861       54.73032       80.65990
O         68.61461       55.73241       80.02738
C         68.18233       54.13511       82.99665
C         66.97841       53.73349       83.86445
C         67.27845       53.87923       85.32740
O         68.13733       53.19432       85.85396
O         66.58359       54.75826       86.07224
H         67.84584       51.90297       81.79379
H         66.89216       54.57729       81.31779
H         68.43274       55.19062       83.24391
H         69.06256       53.49628       83.23184
H         66.66976       52.68684       83.66284
H         66.12756       54.40291       83.61322
N         70.18358       54.24237       80.59137
C         71.21527       54.86530       79.79188
H         72.15353       54.27384       79.85829
H         70.89936       54.90666       78.72727
H         71.41304       55.89265       80.16292
H         70.41687       53.39118       81.10721
Ca        67.64683       54.68490       88.98861
O         65.44696       52.34919       88.89922
H         65.35716       51.84103       89.74430
H         65.57321       51.65734       88.20278
O         68.47395       51.11585       88.75957
H         68.11688       51.41078       87.88530
H         69.23434       50.52601       88.52765

Ca 1.0



