%chk=holoCaM-CaMKII.loop4.water2.frame177.chk
%nprocshared=20
%mem=10GB
%nosave
#b3lyp/svp scf=(tight,noincore,xqc) Test 
#IOP(5/87=12) Density=Current Pop=(MK,readradii) iop(6/33=2) iop(6/42=6)

holoCaM-CaMKII.loop4.water2.frame177 

   -3  1 
C         82.57113       57.96582       11.08834
C         81.28083       57.19969       10.98610
O         81.26730       56.10203       10.45288
H         83.41214       57.40630       10.62800
H         82.46553       58.93922       10.56059
H         82.80873       58.16481       12.15457
N         80.14107       57.75348       11.47615
C         78.80733       57.15495       11.39166
C         78.39843       56.91683        9.93739
O         78.48626       57.83206        9.13072
C         77.80619       58.10874       12.07791
C         76.37655       57.79545       11.75061
O         75.74550       58.61081       11.09765
O         75.76125       56.65294       12.10768
H         80.23489       58.68083       11.92165
H         78.78214       56.18656       11.93989
H         77.99629       59.13530       11.69124
H         77.97446       58.12529       13.17642
N         77.88666       55.70267        9.56551
C         77.46721       55.35830        8.20536
C         75.96973       55.02786        8.08715
O         75.53238       54.85432        6.95787
C         78.33095       54.17173        7.65535
C         78.08708       52.86019        8.45541
C         79.81817       54.56362        7.64902
C         78.90100       51.65275        7.98970
H         77.79803       54.98753       10.29126
H         77.63550       56.23533        7.54229
H         78.03593       53.98829        6.59834
H         77.01215       52.58667        8.38834
H         78.34050       53.01677        9.51229
H         80.18836       54.69981        8.68364
H         80.43577       53.78650        7.15536
H         79.96522       55.50614        7.08127
H         78.70041       51.43021        6.92227
H         79.98689       51.82051        8.14462
H         78.61964       50.76845        8.60183
N         75.13112       54.89100        9.16537
C         73.70870       54.52940        9.03540
C         72.74895       55.55571        9.65224
O         71.54671       55.33409        9.60908
C         73.46468       53.11121        9.59671
C         73.65526       52.94394       11.07980
O         73.99931       53.97803       11.86817
O         73.46965       51.84711       11.58085
H         75.51592       54.99796       10.11227
H         73.43165       54.46653        7.96083
H         74.14461       52.40659        9.06945
H         72.42031       52.81172        9.35850
N         73.19833       56.71953       10.19295
C         72.34122       57.77707       10.70866
C         71.61404       57.44224       11.99576
O         70.40966       57.63959       12.06627
H         74.20348       56.91516       10.16874
H         71.63021       58.10867        9.92122
H         72.98935       58.64696       10.95192
N         72.31456       57.02228       13.08519
C         71.76940       56.92700       14.44452
C         72.55616       57.83866       15.40512
O         72.23763       57.85955       16.58562
C         71.71427       55.44655       14.90924
C         73.05024       54.75536       14.93858
O         74.16010       55.48449       14.75107
O         73.11884       53.54472       15.07459
H         73.31217       56.81567       12.94561
H         70.71499       57.28388       14.46083
H         71.06804       54.91166       14.17861
H         71.23016       55.36478       15.90755
N         73.55034       58.66907       14.95337
C         74.22216       59.67054       15.76866
C         75.39878       59.18213       16.59171
O         76.03375       60.03279       17.20023
H         73.75854       58.71652       13.94760
H         73.48267       60.20907       16.39952
H         74.65482       60.42263       15.07224
N         75.77742       57.87358       16.66496
C         76.94888       57.42517       17.42391
C         77.91602       56.66021       16.53870
O         77.61337       56.42453       15.37879
C         76.49088       56.54539       18.60302
C         75.68492       57.36705       19.62138
C         75.19594       56.55577       20.79479
N         74.51260       57.16808       21.78839
O         75.40882       55.35330       20.85977
H         75.21579       57.16151       16.18148
H         77.51607       58.29026       17.83168
H         77.37420       56.12479       19.13067
H         75.87825       55.70171       18.22034
H         74.80091       57.82265       19.12710
H         76.33681       58.18074       20.00817
H         74.33085       58.18211       21.75118
H         74.16951       56.63122       22.59828
N         79.12459       56.25452       17.02842
C         80.07464       55.45271       16.26642
C         80.33667       54.16344       17.03086
O         80.92209       54.18867       18.10500
C         81.37134       56.25738       15.97803
C         82.45321       55.39743       15.30132
C         81.05357       57.45396       15.06528
H         79.38356       56.51645       17.99240
H         79.64142       55.18517       15.27580
H         81.78764       56.63404       16.93809
H         82.75785       54.55792       15.95812
H         82.09084       54.98795       14.33560
H         83.36174       56.00776       15.11009
H         80.30117       58.12342       15.53030
H         81.97056       58.04877       14.86871
H         80.65300       57.09599       14.09204
N         79.88694       52.99056       16.51416
C         80.07449       51.67009       17.10459
C         81.54526       51.26982       17.02975
O         82.33585       52.00449       16.46081
C         79.17829       50.67339       16.30864
C         79.11044       49.26805       16.84542
N         78.63082       49.02301       18.08611
O         79.46800       48.33586       16.14126
H         79.35245       53.05263       15.64806
H         79.72925       51.70198       18.16039
H         79.52513       50.64688       15.25195
H         78.13490       51.05840       16.30753
H         78.30749       49.79340       18.68818
H         78.57596       48.05726       18.44233
N         81.98217       50.09886       17.56753
C         83.34320       49.59304       17.40145
C         83.64756       49.36246       15.92990
O         84.66287       49.84586       15.44975
C         83.50185       48.27730       18.19439
C         84.83435       47.60132       17.96158
C         86.04501       48.26784       18.21893
C         84.86850       46.28389       17.47298
C         87.26610       47.62730       17.98346
C         86.08852       45.64358       17.24789
C         87.29277       46.31432       17.50050
O         88.47721       45.70801       17.28403
H         81.31175       49.52585       18.09751
H         84.07081       50.32757       17.81254
H         82.68245       47.58066       17.90893
H         83.38866       48.50194       19.27692
H         86.04721       49.28363       18.59240
H         83.94985       45.74775       17.26832
H         88.19299       48.15227       18.17705
H         86.09494       44.62679       16.87598
H         88.53624       44.79937       16.95543
N         82.80377       48.62459       15.15963
C         83.02366       48.36070       13.74023
C         83.10425       49.66353       12.95876
O         84.07306       49.86467       12.23975
C         81.90611       47.45944       13.16485
C         81.86774       46.07890       13.85085
C         80.84928       45.17665       13.21715
O         80.95462       44.85846       12.04329
O         79.82795       44.69144       13.94900
H         81.95789       48.25225       15.61053
H         83.98263       47.80958       13.61123
H         82.11227       47.30561       12.08195
H         80.91503       47.95589       13.26434
H         81.61782       46.18844       14.92642
H         82.86367       45.59224       13.77486
N         82.13175       50.61045       13.08593
C         82.14990       51.89674       12.38311
C         83.41260       52.69887       12.68038
O         83.82442       53.47617       11.82997
C         80.88652       52.72038       12.73875
C         79.61797       52.03891       12.18707
C         78.33931       52.70875       12.61075
O         77.57658       53.16905       11.78361
O         77.96880       52.71659       13.89773
H         81.35498       50.40579       13.73057
H         82.14554       51.69964       11.28734
H         80.95191       53.73987       12.29677
H         80.83710       52.82672       13.84327
H         79.55122       50.98692       12.52616
H         79.69616       52.03663       11.08023
N         84.09908       52.54277       13.84372
C         85.33939       53.23279       14.12288
H         86.10804       52.94179       13.37530
H         85.18640       54.33129       14.09482
H         85.70901       52.94836       15.13214
H         83.73851       51.90374       14.55542
Ca        76.05411       55.03795       13.64503
O         75.32452       51.39148       13.84813
H         75.72995       51.25953       12.95432
H         75.86388       50.81996       14.44996
O         75.93353       53.26214       16.63227
H         75.43588       52.64515       17.22514
H         75.37448       54.07751       16.60621

Ca 1.0



