%chk=holoCaM-CaMKII.loop2.water1.frame358.chk
%nprocshared=20
%mem=10GB
%nosave
#b3lyp/svp scf=(tight,noincore,xqc) Test 
#IOP(5/87=12) Density=Current Pop=(MK,readradii) iop(6/33=2) iop(6/42=6)

holoCaM-CaMKII.loop2.water1.frame358 

   -2  1 
C         54.24436       50.30076       41.40441
C         55.33494       50.40077       42.43490
O         56.42293       49.89909       42.19567
H         53.31724       50.81245       41.74105
H         54.58096       50.78610       40.46298
H         54.00759       49.23672       41.20063
N         55.12111       51.07185       43.59981
C         56.16301       51.30238       44.59362
C         56.64845       50.02063       45.25827
O         55.86210       49.34525       45.90742
C         55.64722       52.27551       45.67154
C         56.70232       52.55950       46.69812
O         57.77688       53.01912       46.35425
O         56.47747       52.28117       47.99587
H         54.19285       51.49733       43.75114
H         57.01215       51.80580       44.08435
H         54.75124       51.84908       46.17360
H         55.35416       53.23264       45.18757
N         57.96655       49.67337       45.18116
C         58.57038       48.56154       45.89945
C         59.75030       49.06258       46.73825
O         60.85914       48.57403       46.56760
C         59.00664       47.49493       44.88599
H         58.58736       50.23856       44.59558
H         57.83361       48.09102       46.58532
H         59.45677       46.62506       45.41072
H         58.12621       47.13842       44.31067
H         59.75061       47.91252       44.17267
N         59.57535       50.04246       47.67552
C         60.65117       50.55165       48.53600
C         60.11930       51.53874       49.57930
O         60.28690       51.26408       50.75976
C         61.87109       51.11336       47.74411
C         61.54357       51.92985       46.52437
O         60.84368       53.06697       46.61293
O         61.92005       51.54780       45.42860
H         58.62719       50.42987       47.79386
H         61.05945       49.70066       49.12780
H         62.47070       50.24939       47.38532
H         62.53645       51.68156       48.43023
N         59.46965       52.68844       49.24029
C         58.95214       53.64683       50.20722
C         59.55697       55.03324       50.06025
O         59.12239       55.91982       50.78205
H         59.29300       52.89207       48.25627
H         59.12345       53.31065       51.25186
H         57.85436       53.72502       50.05437
N         60.56367       55.30947       49.17661
C         61.17273       56.63597       49.04590
C         60.23923       57.70347       48.44975
O         60.67335       58.84127       48.33220
C         62.50434       56.54913       48.25616
C         62.38649       56.14242       46.81150
N         63.49794       56.04479       46.04923
O         61.29851       55.90213       46.32048
H         60.96281       54.53872       48.62649
H         61.46645       56.97205       50.06528
H         63.16775       55.81614       48.76587
H         63.00647       57.53974       48.28982
H         64.42821       56.24231       46.44449
H         63.42961       55.77326       45.06058
N         58.94734       57.43774       48.08977
C         58.01474       58.45873       47.62643
C         58.18122       58.88619       46.17646
O         57.39453       59.71581       45.74325
H         58.56117       56.49763       48.23462
H         58.05917       59.33767       48.30687
H         56.98635       58.04321       47.69963
N         59.13827       58.36273       45.35735
C         59.28769       58.71705       43.94454
C         59.21530       57.48165       43.06537
O         59.69028       56.43466       43.47125
C         60.64660       59.40814       43.70252
C         60.73982       60.73639       44.45105
O         61.70915       58.58101       44.10733
H         59.80029       57.68325       45.74426
H         58.49404       59.42605       43.61806
H         60.74326       59.65115       42.61646
H         61.90400       57.96490       43.35347
H         59.92428       61.41739       44.12556
H         60.66473       60.57715       45.54728
H         61.71344       61.22094       44.22744
N         58.70046       57.54899       41.80586
C         58.74369       56.41611       40.88135
C         60.18545       56.22872       40.41088
O         60.76712       57.18633       39.91894
C         57.78920       56.62600       39.66121
C         56.33642       56.90152       40.14601
C         57.82316       55.37419       38.75366
C         55.33288       57.13709       39.01431
H         58.30821       58.44669       41.48453
H         58.36789       55.50676       41.40217
H         58.13754       57.50291       39.07122
H         56.32156       57.81853       40.76912
H         55.97518       56.05764       40.77323
H         57.45406       54.48249       39.30594
H         57.20628       55.51127       37.84422
H         58.84960       55.16797       38.39448
H         54.34533       57.40028       39.44866
H         55.66959       57.97199       38.36421
H         55.18846       56.22356       38.40326
N         60.80187       55.01237       40.47637
C         62.16286       54.76750       39.99119
C         62.12306       54.05469       38.65183
O         61.04179       53.77652       38.15859
C         62.96628       53.95838       41.02864
C         63.14156       54.71966       42.30795
O         62.06935       55.08365       43.03017
O         64.26032       55.00605       42.70308
H         60.26165       54.20792       40.82000
H         62.68955       55.72859       39.80062
H         63.97549       53.72733       40.62666
H         62.45393       52.99412       41.23997
N         63.27431       53.79095       37.96537
C         63.28025       53.24207       36.61348
C         62.61653       51.86738       36.53766
O         61.73313       51.73125       35.70466
C         64.70126       53.21607       36.00615
C         64.64775       52.83172       34.54849
C         64.12931       53.73187       33.60122
C         65.09890       51.57077       34.12494
C         64.06969       53.37740       32.25114
C         65.02404       51.21492       32.77496
C         64.51330       52.11843       31.83854
H         64.17614       54.05490       38.39022
H         62.69557       53.94557       35.97716
H         65.35261       52.51846       36.55155
H         65.18454       54.21380       36.08916
H         63.78086       54.71069       33.90777
H         65.48972       50.85796       34.84061
H         63.67737       54.07847       31.52579
H         65.36034       50.23751       32.45509
H         64.45998       51.84293       30.79354
N         62.95043       50.79963       37.33668
C         62.25517       49.51508       37.28965
C         60.75170       49.66906       37.43065
O         59.99918       49.08199       36.66647
C         62.79548       48.76122       38.51821
C         64.19307       49.30864       38.63163
C         63.96145       50.79486       38.37860
H         62.52998       48.98345       36.35119
H         62.27358       49.09339       39.44507
H         62.70956       47.65528       38.45483
H         64.71919       49.07746       39.58224
H         64.78441       48.89399       37.78270
H         63.55647       51.31797       39.27275
H         64.93479       51.21992       38.09623
N         60.26336       50.46817       38.41744
C         58.84793       50.64352       38.72420
C         58.08775       51.26793       37.56677
O         56.89307       51.03470       37.44968
C         58.67697       51.54592       39.96452
C         59.41861       51.00667       41.20457
C         59.33391       51.92841       42.37771
O         60.06759       51.64437       43.46355
O         58.65743       52.94482       42.35259
H         60.95856       50.97309       38.98226
H         58.41263       49.64596       38.95650
H         57.59573       51.64980       40.20452
H         59.07896       52.55176       39.71902
H         60.50087       50.90144       41.00614
H         59.02871       50.00731       41.49041
N         58.70625       52.11700       36.70245
C         58.02319       52.76387       35.60711
H         57.20591       53.40573       35.99690
H         58.74004       53.40401       35.04760
H         57.61198       52.00162       34.91345
H         59.69996       52.32414       36.82607
Ca        60.02635       54.05518       44.76981
O         57.60041       55.77725       45.77018
H         57.10771       55.33946       45.03239
H         57.10166       55.52807       46.58838

Ca 1.0



