%chk=holoCaM-CaMKII.loop1.water2.frame269.chk
%nprocshared=20
%mem=10GB
%nosave
#b3lyp/svp scf=(tight,noincore,xqc) Test 
#IOP(5/87=12) Density=Current Pop=(MK,readradii) iop(6/33=2) iop(6/42=6)

holoCaM-CaMKII.loop1.water2.frame269 

   0  1 
C         50.30528       37.13675       49.52153
C         51.55653       37.94318       49.56687
O         52.15779       38.15562       48.53041
H         49.54610       37.67939       48.92317
H         50.51198       36.13937       49.08599
H         49.90843       36.99905       50.54718
N         51.96448       38.45527       50.75751
C         53.13320       39.28447       50.99266
C         54.36798       38.38996       50.98292
O         54.93280       38.11814       52.03293
C         52.90803       39.98488       52.35231
C         53.95312       40.96203       52.73599
O         54.84436       41.27344       51.97209
O         53.88931       41.50917       53.95359
H         51.36604       38.25853       51.57170
H         53.19287       40.10079       50.24153
H         52.82146       39.23011       53.16356
H         51.95593       40.55669       52.30655
N         54.79661       37.83721       49.81413
C         55.83276       36.81886       49.69673
C         57.25052       37.33704       49.85818
O         58.18633       36.59437       49.59618
C         55.62959       36.02039       48.38634
C         54.43556       35.03193       48.45034
C         54.56611       33.90804       49.51727
C         55.99036       33.30493       49.61677
N         56.10747       32.33333       50.70333
H         54.32748       38.10980       48.94957
H         55.73734       36.11174       50.54469
H         56.52512       35.41718       48.14590
H         55.51363       36.71463       47.52797
H         54.37550       34.53643       47.46098
H         53.47793       35.58082       48.60660
H         53.83773       33.10421       49.26114
H         54.27413       34.31101       50.50976
H         56.72086       34.10637       49.84538
H         56.27860       32.84140       48.64807
H         55.45777       31.52771       50.56623
H         57.09103       31.97569       50.73153
H         55.91153       32.80859       51.61492
N         57.48612       38.54793       50.41164
C         58.78319       38.95993       50.94917
C         58.68687       39.51309       52.37879
O         59.71731       39.64915       53.02481
C         59.46099       39.93676       50.00211
C         58.51092       40.86920       49.33406
O         58.56042       40.95019       48.11863
O         57.49694       41.44689       50.01163
H         56.69487       39.18665       50.49321
H         59.45301       38.07474       51.03349
H         59.88797       39.32410       49.18375
H         60.30150       40.47428       50.48291
N         57.48791       39.79307       52.95588
C         57.27500       40.14889       54.33828
C         57.69756       41.55810       54.67996
O         58.39424       41.75032       55.66277
H         56.63281       39.69669       52.42259
H         57.73605       39.38241       54.99321
H         56.17572       40.10569       54.50961
N         57.19873       42.60122       53.96448
C         57.36545       44.01918       54.30327
C         56.11498       44.58084       54.99789
O         56.05690       45.77926       55.24190
C         57.72671       44.82916       53.03535
C         56.81414       44.61614       51.87212
O         57.29258       44.58514       50.75296
O         55.58701       44.12427       52.05605
H         56.58180       42.35613       53.18457
H         58.20738       44.15994       55.01176
H         58.72661       44.50999       52.68456
H         57.78331       45.91689       53.26382
N         55.10925       43.75377       55.41006
C         53.87450       44.18895       56.05050
C         52.89865       44.81127       55.07117
O         51.94229       45.43847       55.50434
H         55.23772       42.74817       55.30100
H         54.10850       44.88056       56.88634
H         53.36138       43.30065       56.48183
N         53.05904       44.62815       53.73106
C         52.20225       45.17792       52.69402
C         51.94451       44.12800       51.56382
O         53.08434       43.61014       50.91717
C         52.66613       46.60463       52.23853
C         52.37607       47.68380       53.29452
O         54.01019       46.67051       51.83603
H         53.81085       44.01412       53.42602
H         51.18173       45.30081       53.10417
H         52.04901       46.87606       51.36492
H         54.53617       46.12094       52.46407
H         52.44483       48.68925       52.82681
H         51.33228       47.58254       53.66864
H         53.08878       47.63170       54.14514
N         50.92511       44.59601       50.61824
C         50.58668       43.75360       49.46043
C         50.55886       44.69197       48.26651
O         49.88941       45.71489       48.30625
C         49.25534       42.93861       49.61782
C         49.38143       41.85549       50.73119
C         48.88272       42.28518       48.25641
C         48.02232       41.26600       51.11774
H         50.17232       45.23511       50.97466
H         51.37058       42.98420       49.29090
H         48.43810       43.63262       49.90541
H         49.77778       42.32214       51.65493
H         50.07058       41.03098       50.42948
H         48.05829       41.54754       48.30104
H         48.56427       43.06478       47.52952
H         49.75945       41.75963       47.83808
H         47.58935       40.68064       50.28407
H         48.11469       40.59397       51.99869
H         47.33497       42.09286       51.39707
N         51.24199       44.34818       47.14325
C         51.24833       45.07713       45.88570
C         50.42986       44.30076       44.86062
O         50.06062       43.16430       45.10864
C         52.69503       45.28824       45.31561
C         53.61543       46.19981       46.13993
O         53.32658       44.06243       45.05154
H         51.67057       43.43802       47.14277
H         50.75214       46.05390       46.03060
H         52.60157       45.79235       44.33718
H         53.65137       43.70978       45.90848
H         53.20737       47.22812       46.20296
H         53.74436       45.79874       47.15756
H         54.61470       46.26118       45.64589
N         50.10547       44.88700       43.67315
C         49.36688       44.23218       42.58013
C         50.06369       42.97449       42.07876
O         49.40131       41.97613       41.83339
C         49.16851       45.17867       41.36233
C         48.18816       46.31827       41.64282
O         50.40414       45.69864       40.93358
H         50.39727       45.86757       43.55782
H         48.36661       43.92066       42.95319
H         48.72189       44.56666       40.54703
H         50.21977       46.33322       40.19079
H         48.62029       47.03208       42.37074
H         47.98764       46.85757       40.68948
H         47.22282       45.91539       42.01382
N         51.41136       42.96363       41.93182
C         52.22631       41.79334       41.59475
C         51.94891       40.63428       42.54295
O         51.91587       39.48734       42.11589
C         53.70831       42.24558       41.70158
C         54.75875       41.15190       41.47402
C         56.12714       41.77304       41.16287
C         57.21240       40.69277       41.15374
N         58.52112       41.25205       40.81119
H         51.89649       43.84692       42.14736
H         52.00229       41.45607       40.55599
H         53.89658       42.68275       42.71057
H         53.85590       43.05907       40.95969
H         54.48275       40.51651       40.60874
H         54.82368       40.52031       42.39008
H         56.39241       42.54142       41.92335
H         56.07043       42.26555       40.16565
H         56.94369       39.89167       40.42930
H         57.26249       40.24678       42.17198
H         59.26329       40.55653       41.05399
H         58.57355       41.45538       39.78657
H         58.69607       42.12984       41.35186
N         51.77484       40.88901       43.86268
C         51.53151       39.88972       44.89430
C         50.09714       39.37618       44.85238
O         49.87176       38.24208       45.25338
C         51.90486       40.49525       46.26796
C         53.44484       40.69501       46.39513
C         53.88615       41.44059       47.63281
O         53.48959       42.56356       47.81798
O         54.79065       41.01036       48.51784
H         51.82583       41.87205       44.14704
H         52.19412       39.01359       44.72628
H         51.54398       39.84869       47.07712
H         51.36815       41.45156       46.36551
H         53.80362       41.29444       45.53005
H         53.93861       39.70677       46.35737
N         49.07601       40.13851       44.37364
C         47.73972       39.61609       44.18478
H         47.04605       40.43294       43.88832
H         47.76388       38.86787       43.36408
H         47.36065       39.13717       45.11140
H         49.24975       41.11185       44.10636
Ca        54.97892       42.80374       49.88347
O         55.27782       45.64849       48.97814
H         55.76980       46.05618       48.22380
H         55.75223       45.99213       49.76810
O         56.59054       43.16616       47.55379
H         57.42248       42.87485       47.98196
H         56.91402       43.55560       46.70932

Ca 1.0



