%chk=holoCaM-CaMKII.loop4.water1.frame348.chk
%nprocshared=20
%mem=10GB
%nosave
#b3lyp/svp scf=(tight,noincore,xqc) Test 
#IOP(5/87=12) Density=Current Pop=(MK,readradii) iop(6/33=2) iop(6/42=6)

holoCaM-CaMKII.loop4.water1.frame348 

   -3  1 
C         28.82873       71.85285       23.08441
C         28.13906       71.30706       21.86722
O         28.08929       70.09849       21.69144
H         29.66042       72.52222       22.78193
H         28.10056       72.43510       23.69056
H         29.23171       71.03218       23.71459
N         27.54004       72.16114       20.99596
C         26.75619       71.71566       19.84914
C         27.63194       71.06425       18.77756
O         28.68645       71.60404       18.47326
C         25.97056       72.91303       19.27234
C         24.87208       72.46261       18.35650
O         24.51656       73.19715       17.45770
O         24.10899       71.40007       18.69377
H         27.58375       73.17148       21.20821
H         25.99803       70.99546       20.22983
H         26.65401       73.63328       18.76530
H         25.46705       73.45195       20.10154
N         27.21831       69.93707       18.11944
C         27.99628       69.26071       17.07186
C         27.37117       69.39885       15.67382
O         27.94962       68.86218       14.73905
C         28.21372       67.74698       17.41121
C         26.87840       66.95854       17.44493
C         28.99515       67.58910       18.72769
C         27.03652       65.44022       17.50529
H         26.29227       69.56099       18.35260
H         29.00288       69.72703       16.99043
H         28.84018       67.31786       16.59773
H         26.28833       67.17475       16.52912
H         26.29957       67.27155       18.32160
H         29.23563       66.52477       18.92521
H         29.95887       68.13687       18.66737
H         28.41078       67.98450       19.58587
H         27.55652       65.11646       18.42808
H         26.02776       64.97271       17.50475
H         27.59103       65.07871       16.61412
N         26.22666       70.10668       15.43927
C         25.61056       70.24589       14.11247
C         25.62497       71.69787       13.66805
O         26.08973       71.99595       12.57791
C         24.12588       69.82195       14.13825
C         23.86005       68.40209       14.51033
O         24.16323       67.48669       13.76219
O         23.22456       68.15181       15.66718
H         25.77800       70.58455       16.23030
H         26.13602       69.63038       13.34988
H         23.65760       70.00312       13.14559
H         23.58574       70.45639       14.86453
N         25.05919       72.64106       14.46610
C         24.82769       74.02946       14.11422
C         23.35932       74.41040       14.29810
O         23.04088       75.57793       14.12589
H         24.74096       72.34036       15.38754
H         25.14545       74.24448       13.07176
H         25.42961       74.66209       14.80111
N         22.41051       73.49061       14.66252
C         21.00099       73.80190       14.90377
C         20.75769       74.67342       16.14022
O         19.61164       75.03035       16.37753
C         20.18817       72.48662       15.02946
C         20.57470       71.60705       16.19709
O         20.00169       70.54201       16.35819
O         21.53893       71.97122       17.06503
H         22.68110       72.50517       14.73803
H         20.61390       74.33897       14.00993
H         20.32908       71.89947       14.09569
H         19.10714       72.72880       15.11696
N         21.76632       75.04676       16.97793
C         21.57261       75.87580       18.15276
C         20.75362       75.20200       19.23038
O         19.76178       75.78006       19.64907
H         22.73069       74.76323       16.77639
H         21.11155       76.84329       17.85355
H         22.56607       76.10111       18.59729
N         21.16039       74.01864       19.78307
C         20.51189       73.41246       20.95567
C         21.32116       72.24328       21.52998
O         22.29958       71.82012       20.93085
C         19.02624       73.03604       20.68563
C         18.80024       71.98203       19.58959
C         19.26525       70.61768       20.01030
N         18.71080       70.01584       21.08724
O         20.14262       70.04895       19.37849
H         22.01600       73.59342       19.39684
H         20.51867       74.18673       21.75438
H         18.47222       73.94289       20.37971
H         18.54349       72.70668       21.62961
H         19.30063       72.31078       18.65555
H         17.71045       71.90718       19.38333
H         17.95854       70.46917       21.62537
H         19.03482       69.09314       21.38990
N         20.98893       71.71859       22.74699
C         21.77070       70.69300       23.43729
C         20.89388       69.48939       23.76676
O         19.84430       69.65156       24.37279
C         22.40186       71.29929       24.72477
C         23.19626       70.24831       25.52388
C         23.35060       72.45798       24.36646
H         20.17890       72.11403       23.24781
H         22.62394       70.35239       22.81209
H         21.59440       71.69323       25.38058
H         23.64132       70.71027       26.43122
H         22.53273       69.42909       25.86690
H         24.01466       69.81546       24.90851
H         23.78909       72.89761       25.28774
H         24.18100       72.09804       23.71931
H         22.80981       73.26607       23.83227
N         21.33617       68.23377       23.47065
C         20.66680       66.99401       23.84767
C         21.48152       66.30633       24.92458
O         22.51960       66.81748       25.32302
C         20.59209       66.04457       22.62614
C         19.70652       66.55606       21.52991
N         20.21501       66.83777       20.30889
O         18.51069       66.69594       21.73900
H         22.26039       68.13550       23.03848
H         19.65209       67.18645       24.25904
H         20.18899       65.05205       22.91548
H         21.62439       65.87859       22.24437
H         21.22024       66.71962       20.12171
H         19.60491       67.17838       19.55119
N         21.06729       65.11801       25.44206
C         21.87972       64.35097       26.37250
C         23.14755       63.86987       25.67495
O         24.21987       63.97414       26.25018
C         21.08821       63.15001       26.92553
C         21.84372       62.49446       28.05800
C         22.10649       63.21699       29.23763
C         22.29645       61.17096       27.95153
C         22.81894       62.63091       30.28427
C         23.01095       60.58542       29.00260
C         23.27637       61.31586       30.17147
O         23.96802       60.76700       31.18987
H         20.15478       64.73713       25.14826
H         22.13349       65.00838       27.23229
H         20.87864       62.43440       26.09981
H         20.11182       63.49625       27.33005
H         21.76123       64.23732       29.35024
H         22.10517       60.59617       27.05430
H         23.01658       63.20255       31.18278
H         23.36040       59.56581       28.90633
H         24.30748       59.86188       31.15251
N         23.08895       63.35376       24.40935
C         24.26244       62.91023       23.65070
C         25.27646       64.03248       23.39514
O         26.38070       63.71538       22.97591
C         23.78635       62.28706       22.30752
C         24.90260       61.74915       21.39328
C         24.32678       61.12379       20.15457
O         24.59814       61.57766       19.05369
O         23.51685       60.05245       20.25027
H         22.15988       63.27229       23.96736
H         24.76857       62.12210       24.25181
H         23.21170       63.05286       21.73947
H         23.09836       61.44734       22.55251
H         25.50831       60.99105       21.93329
H         25.56369       62.57967       21.07139
N         25.00179       65.34936       23.63288
C         25.95789       66.42464       23.37133
C         26.45729       67.06803       24.65631
O         27.37799       67.86971       24.57702
C         25.30958       67.50461       22.48479
C         24.72420       66.93265       21.19025
C         24.05602       68.00760       20.38757
O         24.43872       68.24175       19.26421
O         23.01771       68.70444       20.87581
H         24.07910       65.61321       23.98729
H         26.85215       66.01663       22.85095
H         26.06203       68.28538       22.23676
H         24.49597       67.98621       23.06476
H         23.96247       66.15809       21.41489
H         25.54022       66.46364       20.59700
N         25.90713       66.77845       25.87045
C         26.37266       67.33440       27.12187
H         27.25738       67.99040       26.99203
H         25.55411       67.92146       27.58801
H         26.64907       66.50224       27.80358
H         25.10656       66.14512       25.93470
Ca        23.57833       69.71207       17.27152
O         21.90956       66.73271       17.68723
H         22.57927       66.01822       17.54223
H         21.19532       66.54749       17.02726

Ca 1.0



