%chk=holoCaM-CaMKII.loop4.water2.frame202.chk
%nprocshared=20
%mem=10GB
%nosave
#b3lyp/svp scf=(tight,noincore,xqc) Test 
#IOP(5/87=12) Density=Current Pop=(MK,readradii) iop(6/33=2) iop(6/42=6)

holoCaM-CaMKII.loop4.water2.frame202 

   -3  1 
C          6.48010       55.85015       27.90119
C          7.24707       54.77354       27.19312
O          6.76665       54.26784       26.18993
H          5.50418       55.45050       28.24407
H          7.03824       56.23397       28.78152
H          6.30732       56.69610       27.20266
N          8.47029       54.38796       27.64675
C          9.29443       53.40591       26.95624
C          8.64514       52.03101       26.98362
O          8.25275       51.59565       28.05769
C         10.69101       53.34494       27.59935
C         11.71832       52.74631       26.68393
O         12.87843       52.70057       27.05062
O         11.41966       52.41093       25.41310
H          8.85117       54.85470       28.48506
H          9.42782       53.77352       25.92129
H         10.65529       52.81674       28.57684
H         11.04977       54.38251       27.77993
N          8.53568       51.27413       25.85165
C          7.86885       49.97207       25.81951
C          8.87546       48.81973       25.76649
O          8.47610       47.70563       26.07630
C          6.85982       49.92986       24.61915
C          5.84623       51.10258       24.71748
C          6.12529       48.57611       24.51585
C          4.90391       51.21783       23.51388
H          8.94534       51.62980       24.97780
H          7.30723       49.82995       26.76975
H          7.44643       50.06422       23.68195
H          6.40561       52.05958       24.76246
H          5.24215       51.00773       25.64559
H          5.45810       48.54425       23.63309
H          6.83537       47.74306       24.35104
H          5.52990       48.38119       25.43238
H          4.22606       50.34511       23.43573
H          4.26727       52.11993       23.62942
H          5.48336       51.31479       22.57240
N         10.17685       48.98654       25.38361
C         11.12184       47.87018       25.27699
C         12.36728       48.03612       26.15033
O         13.22073       47.16038       26.10676
C         11.44229       47.58152       23.79431
C         12.10861       48.68795       23.03066
O         12.41240       49.85798       23.61575
O         12.37468       48.52108       21.85155
H         10.49709       49.92156       25.10408
H         10.64892       46.93075       25.63835
H         10.48485       47.34232       23.28004
H         12.08806       46.67824       23.73621
N         12.49592       49.05624       27.04804
C         13.54258       49.08238       28.06301
C         14.92523       49.51401       27.61284
O         15.79430       49.56499       28.47276
H         11.74189       49.75237       27.13571
H         13.59507       48.08911       28.55944
H         13.24263       49.81820       28.84124
N         15.21811       49.90374       26.33822
C         16.52240       50.47944       25.97526
C         16.75111       51.88522       26.57765
O         17.77891       52.47593       26.27562
C         16.76897       50.41377       24.43970
C         15.67956       51.02368       23.62268
O         15.01002       50.32333       22.88121
O         15.36304       52.31171       23.77045
H         14.49027       49.81572       25.61555
H         17.33046       49.83201       26.38264
H         16.83356       49.33919       24.15784
H         17.74212       50.88352       24.18124
N         15.90287       52.44855       27.49803
C         16.16945       53.70181       28.19378
C         15.87813       54.94533       27.38381
O         16.08761       56.03011       27.90714
H         15.07668       51.93987       27.82044
H         17.21802       53.70494       28.56411
H         15.50635       53.76028       29.08480
N         15.38454       54.87863       26.11782
C         15.10670       56.04549       25.28617
C         13.64647       56.02097       24.84151
O         12.97253       55.04124       25.11437
C         16.14559       55.98433       24.15221
C         16.08556       57.06577       23.07652
C         17.32054       56.94526       22.21399
N         17.23913       56.57680       20.91563
O         18.41769       57.16389       22.70822
H         15.22276       53.95601       25.69401
H         15.26153       56.98532       25.85995
H         16.08699       54.99615       23.64566
H         17.13685       56.04431       24.65741
H         16.06591       58.07997       23.52853
H         15.16400       56.91897       22.47327
H         16.33122       56.36341       20.47994
H         18.09668       56.48115       20.35051
N         13.05387       57.09176       24.23034
C         11.64738       57.07465       23.82013
C         11.54310       57.44241       22.35042
O         11.82599       58.57784       21.99344
C         10.79142       58.01832       24.71274
C          9.30895       58.00312       24.29355
C         10.88578       57.60416       26.19135
H         13.59873       57.95471       24.08731
H         11.22713       56.05663       23.95206
H         11.17273       59.05893       24.61713
H          8.71810       58.68451       24.94251
H          9.18777       58.35591       23.25004
H          8.88498       56.97880       24.37733
H         10.50636       56.56854       26.33357
H         11.93465       57.65297       26.55017
H         10.28224       58.29090       26.82275
N         11.14848       56.51134       21.43619
C         10.98871       56.80487       20.01202
C          9.72620       57.65219       19.80709
O          8.90992       57.71642       20.71088
C         10.86993       55.44331       19.26299
C         10.95390       55.43100       17.75362
N         10.76346       54.26748       17.08967
O         11.22133       56.43759       17.12130
H         10.98741       55.54762       21.76608
H         11.90462       57.33358       19.66764
H          9.91812       54.96381       19.57177
H         11.69874       54.78450       19.60215
H         10.54846       53.39891       17.60108
H         10.82381       54.23469       16.06111
N          9.47167       58.29210       18.63228
C          8.19036       58.92344       18.30561
C          7.08510       57.87746       18.32370
O          6.04815       58.11212       18.92765
C          8.28394       59.57118       16.90569
C          6.98478       60.18466       16.42973
C          6.35656       61.21359       17.15349
C          6.39584       59.73147       15.23629
C          5.16078       61.77462       16.69000
C          5.20499       60.29630       14.77349
C          4.58281       61.32097       15.49913
O          3.43492       61.87667       15.06102
H         10.20609       58.30561       17.91731
H          7.95810       59.72604       19.04060
H          8.61777       58.79897       16.17758
H          9.06151       60.36509       16.93202
H          6.78923       61.58342       18.07401
H          6.86034       58.94267       14.65779
H          4.68420       62.56594       17.25504
H          4.76904       59.93749       13.84950
H          3.00890       61.59572       14.23826
N          7.28727       56.66841       17.72617
C          6.33817       55.55541       17.73493
C          5.79577       55.30813       19.13223
O          4.58573       55.29562       19.31080
C          7.06488       54.29394       17.20274
C          6.19497       53.03125       17.17020
C          6.99187       51.86653       16.65165
O          6.64075       51.28215       15.63946
O          8.09763       51.45847       17.30542
H          8.20823       56.51104       17.28851
H          5.48281       55.79386       17.06440
H          7.95155       54.09379       17.84506
H          7.42843       54.50217       16.17188
H          5.31091       53.20801       16.52051
H          5.84276       52.77878       18.19313
N          6.64805       55.11984       20.17141
C          6.21641       54.86389       21.54109
C          5.37254       56.01512       22.06469
O          4.22840       55.78337       22.43006
C          7.45142       54.62255       22.43344
C          8.18479       53.32897       22.01475
C          9.46613       53.10147       22.75655
O         10.17076       51.97846       22.52665
O          9.88954       53.92322       23.55009
H          7.65523       55.17119       19.96744
H          5.59552       53.93928       21.56525
H          7.13773       54.51650       23.49480
H          8.13462       55.49698       22.35452
H          8.44363       53.34242       20.93721
H          7.51101       52.46717       22.19682
N          5.86462       57.28393       22.10919
C          5.10400       58.42964       22.56634
H          4.07890       58.15731       22.89382
H          5.63215       58.90591       23.41852
H          5.02183       59.16728       21.73987
H          6.82270       57.45829       21.79113
Ca        13.17180       52.57257       24.02718
O         12.22144       51.74590       20.46716
H         11.50965       52.17485       19.92907
H         11.99681       50.78251       20.45103
O         14.03901       54.10879       21.21675
H         14.27904       53.54862       20.43653
H         14.87492       54.16432       21.74255

Ca 1.0



