%chk=holoCaM.loop4.water2.frame321.chk
%nprocshared=20
%mem=10GB
%nosave
#b3lyp/svp scf=(tight,noincore,xqc) Test 
#IOP(5/87=12) Density=Current Pop=(MK,readradii) iop(6/33=2) iop(6/42=6)

holoCaM.loop4.water2.frame321 

   -3  1 
C        124.39483       35.76079       -5.61511
C        125.59408       36.55884       -5.18381
O        125.61804       37.76636       -5.36234
H        123.63013       36.40593       -6.09549
H        124.70154       34.96704       -6.32861
H        123.93830       35.27772       -4.72335
N        126.62541       35.92267       -4.57139
C        127.80094       36.58615       -4.01295
C        128.65327       37.30442       -5.06569
O        129.06426       36.68815       -6.03804
C        128.63168       35.53463       -3.25474
C        129.83373       36.12665       -2.59522
O        130.94270       35.68908       -2.85363
O        129.69413       37.13381       -1.71266
H        126.53353       34.90121       -4.44538
H        127.45522       37.32306       -3.25523
H        128.94691       34.72483       -3.94894
H        127.99548       35.08644       -2.45979
N        128.99849       38.61501       -4.87227
C        129.83425       39.43065       -5.76325
C        131.15274       39.86104       -5.08400
O        132.00954       40.39607       -5.77376
C        128.98270       40.69062       -6.17407
C        127.77765       40.24916       -7.04366
C        129.78692       41.80556       -6.87924
C        126.75115       41.35866       -7.29427
H        128.64170       39.07622       -4.02617
H        130.12432       38.84423       -6.66280
H        128.59290       41.14410       -5.23351
H        127.23147       39.43537       -6.52760
H        128.14418       39.85507       -8.01650
H        129.15181       42.68436       -7.10187
H        130.56887       42.21651       -6.20935
H        130.24716       41.43560       -7.81786
H        126.35574       41.73892       -6.32790
H        127.17708       42.20022       -7.87486
H        125.90530       40.94877       -7.88454
N        131.36159       39.72791       -3.74314
C        132.48308       40.35572       -3.02617
C        133.20162       39.43186       -2.02970
O        134.17628       39.87420       -1.43671
C        131.99792       41.64822       -2.31135
C        130.86349       41.45239       -1.33726
O        130.20370       40.28122       -1.29973
O        130.52436       42.36968       -0.60918
H        130.62759       39.27185       -3.20385
H        133.25796       40.68668       -3.75202
H        131.66925       42.39654       -3.06522
H        132.86372       42.08757       -1.76854
N        132.81295       38.14601       -1.80725
C        133.52630       37.20956       -0.94220
C        133.47787       37.47703        0.56000
O        134.07781       36.69439        1.28321
H        132.02586       37.77750       -2.34306
H        134.58666       37.16203       -1.27136
H        133.08635       36.19940       -1.08978
N        132.80194       38.52210        1.11877
C        132.77562       38.78098        2.56985
C        132.04714       37.71645        3.40528
O        132.05459       37.85003        4.62191
C        132.14701       40.17059        2.85175
C        130.73779       40.28828        2.34532
O        130.14311       39.22101        1.78941
O        130.16355       41.36425        2.36624
H        132.33002       39.18507        0.48879
H        133.82851       38.82791        2.92598
H        132.76001       40.93201        2.32276
H        132.17063       40.40515        3.93795
N        131.39243       36.65063        2.85567
C        130.70079       35.64555        3.65722
C        129.40545       36.12140        4.30830
O        128.77226       35.31142        4.96826
H        131.40414       36.51177        1.83653
H        131.39650       35.24369        4.42556
H        130.41587       34.80242        2.99051
N        128.92003       37.38391        4.13064
C        127.63503       37.86096        4.63388
C        126.72613       38.20156        3.45949
O        127.14372       38.05689        2.32047
C        127.83868       39.11792        5.50544
C        128.79618       38.88272        6.68187
C        128.88209       40.07511        7.60782
N        129.69510       40.02944        8.68698
O        128.21694       41.08052        7.39938
H        129.45940       38.04626        3.58156
H        127.13399       37.07639        5.24087
H        126.85304       39.42691        5.91392
H        128.23719       39.95045        4.88178
H        129.81181       38.66463        6.28614
H        128.44567       38.01036        7.27287
H        130.26541       39.19320        8.87919
H        129.75417       40.83163        9.33176
N        125.46164       38.67444        3.66642
C        124.56364       39.03850        2.57649
C        124.26851       40.52400        2.66008
O        123.61807       40.95218        3.60344
C        123.26081       38.18899        2.65689
C        122.23349       38.58816        1.58486
C        123.57581       36.69236        2.51641
H        125.11880       38.79128        4.63077
H        125.04092       38.83920        1.59211
H        122.78838       38.35065        3.65179
H        122.65066       38.44966        0.56659
H        121.31601       37.96925        1.68202
H        121.92300       39.64336        1.71437
H        124.27121       36.35867        3.31442
H        122.64318       36.09537        2.60977
H        124.03638       36.48187        1.52712
N        124.71504       41.37325        1.68769
C        124.31187       42.77642        1.62927
C        122.92207       42.84859        1.02858
O        122.41892       41.83854        0.57088
C        125.33467       43.57777        0.78694
C        125.08112       45.05790        0.65210
N        125.04341       45.85812        1.74128
O        124.94120       45.54624       -0.45908
H        125.28582       40.99072        0.91837
H        124.30628       43.19460        2.65954
H        125.38782       43.12922       -0.23142
H        126.31829       43.48884        1.28469
H        125.17629       45.47095        2.68588
H        124.88708       46.87093        1.63653
N        122.22398       44.00941        1.02366
C        120.89904       44.14208        0.42139
C        120.90588       43.97183       -1.10108
O        119.90223       43.50324       -1.62122
C        120.19351       45.43595        0.90156
C        121.08980       46.65791        0.91463
C        121.45548       47.22404        2.15246
C        121.60157       47.21506       -0.26498
C        122.32580       48.31207        2.20837
C        122.47525       48.30822       -0.20760
C        122.84307       48.85639        1.03149
O        123.69495       49.89843        1.10588
H        122.64318       44.80817        1.51294
H        120.26088       43.31415        0.81008
H        119.89307       45.23586        1.95444
H        119.25419       45.61670        0.33681
H        121.08438       46.81013        3.08248
H        121.33246       46.79976       -1.22358
H        122.60650       48.72341        3.17037
H        122.87195       48.72349       -1.12473
H        124.08945       50.29930        0.31898
N        121.98016       44.29831       -1.88456
C        121.99102       44.08494       -3.34084
C        122.04516       42.60511       -3.72585
O        121.94591       42.30185       -4.90688
C        123.19257       44.79522       -4.00677
C        123.16447       46.32491       -3.86015
C        121.94714       46.93144       -4.50411
O        121.73911       46.77552       -5.69717
O        121.08104       47.65279       -3.76788
H        122.79765       44.73007       -1.43612
H        121.05613       44.51378       -3.76428
H        123.20052       44.56636       -5.09640
H        124.13764       44.40051       -3.57296
H        124.06630       46.74556       -4.35386
H        123.20484       46.60406       -2.78828
N        122.19332       41.63456       -2.78731
C        122.23286       40.20540       -3.05683
C        120.93610       39.59040       -2.56278
O        120.31011       38.85168       -3.30997
C        123.45732       39.58068       -2.35728
C        124.78066       40.17052       -2.87442
C        125.97821       39.62788       -2.14393
O        127.08694       40.05129       -2.42144
O        125.84953       38.70111       -1.17330
H        122.27816       41.91221       -1.80819
H        122.31695       39.99156       -4.14686
H        123.46102       38.48085       -2.52969
H        123.38566       39.76872       -1.26464
H        124.77626       41.27180       -2.73290
H        124.88886       39.95444       -3.95983
N        120.42787       39.91280       -1.34034
C        119.15474       39.42441       -0.86685
H        118.35292       39.70001       -1.58517
H        119.19478       38.32415       -0.74166
H        118.91771       39.89335        0.11333
H        120.92781       40.56746       -0.73332
Ca       128.72891       39.45619        0.14126
O        127.67473       41.87866        0.07260
H        128.08982       42.75831       -0.10046
H        127.79236       41.73178        1.04634
O        128.59173       36.25236        0.69590
H        129.40600       35.70171        0.58199
H        127.91551       35.62741        1.05779

Ca 1.0



