%chk=holoCaM-CaMKII.loop1.water1.frame30.chk
%nprocshared=20
%mem=10GB
%nosave
#b3lyp/svp scf=(tight,noincore,xqc) Test 
#IOP(5/87=12) Density=Current Pop=(MK,readradii) iop(6/33=2) iop(6/42=6)

holoCaM-CaMKII.loop1.water1.frame30 

   0  1 
C         33.52643       67.45236       24.19702
C         33.82643       66.34246       23.23832
O         34.61862       66.53714       22.33199
H         32.43837       67.67253       24.18493
H         33.82924       67.14348       25.21899
H         34.08205       68.37396       23.91988
N         33.19334       65.14560       23.36572
C         33.42454       64.00607       22.48897
C         32.23393       63.86739       21.57006
O         31.51426       62.87945       21.61371
C         33.73015       62.77209       23.36721
C         33.95065       61.48076       22.62537
O         33.20832       60.53777       22.84344
O         34.98211       61.32090       21.77333
H         32.48356       65.04555       24.10790
H         34.27840       64.19728       21.82560
H         32.88442       62.62869       24.07398
H         34.64227       62.97302       23.96514
N         31.97610       64.88147       20.69366
C         30.82822       64.88925       19.79606
C         30.98934       63.89648       18.64671
O         30.04012       63.72864       17.89339
C         30.58840       66.28700       19.16689
C         30.65958       67.46155       20.16471
C         30.27225       68.80388       19.52224
C         28.76387       68.97453       19.26640
N         28.00000       68.99747       20.51763
H         32.61319       65.68741       20.70505
H         29.93297       64.64428       20.41160
H         29.58960       66.25292       18.68143
H         31.34896       66.48293       18.37830
H         31.71188       67.57836       20.49078
H         30.05607       67.26507       21.07183
H         30.83317       68.92306       18.56842
H         30.59034       69.62711       20.19754
H         28.37356       68.18039       18.59569
H         28.61883       69.94880       18.74992
H         28.02269       68.06650       20.98940
H         28.38278       69.72955       21.16023
H         27.00298       69.22768       20.30703
N         32.16963       63.24171       18.41991
C         32.39802       62.34614       17.28743
C         32.46803       60.88152       17.72173
O         32.58346       60.02046       16.86130
C         33.61681       62.83011       16.46264
C         34.94301       62.82208       17.17992
O         35.05535       62.37696       18.44406
O         35.93877       63.22618       16.60062
H         32.95330       63.38629       19.06792
H         31.52878       62.39203       16.59570
H         33.41424       63.87447       16.13438
H         33.71412       62.20287       15.55061
N         32.28472       60.52215       19.02579
C         32.05818       59.15910       19.47843
C         33.24071       58.23141       19.35672
O         33.10220       57.16609       18.77344
H         32.17884       61.25072       19.74268
H         31.17678       58.74010       18.94580
H         31.80236       59.19865       20.55953
N         34.42251       58.55138       19.94460
C         35.57185       57.65563       20.03091
C         36.06336       57.48067       21.47866
O         37.05840       56.79525       21.67039
C         36.67361       58.12732       19.05719
C         37.03494       59.58245       19.15297
O         37.53807       60.09735       20.28211
O         36.89140       60.30548       18.18115
H         34.51118       59.48745       20.35433
H         35.30318       56.63245       19.68578
H         36.29661       57.94987       18.02532
H         37.58278       57.50203       19.18693
N         35.39781       58.01179       22.55203
C         35.79628       57.81902       23.94546
C         37.07212       58.53781       24.36196
O         37.43984       58.42836       25.52186
H         34.52063       58.51997       22.39712
H         35.89006       56.73097       24.15316
H         34.98874       58.21702       24.59901
N         37.79303       59.28884       23.48601
C         39.01822       60.01031       23.81137
C         38.84718       61.47762       23.45328
O         38.50149       61.78678       22.32381
C         40.21798       59.38754       23.05409
C         40.62018       58.04836       23.67853
O         39.91831       59.18306       21.69640
H         37.46872       59.35572       22.52015
H         39.25646       59.94830       24.89619
H         41.11325       60.04529       23.15994
H         40.12047       60.02682       21.21772
H         39.78182       57.32168       23.64947
H         41.48790       57.62106       23.13269
H         40.92560       58.20299       24.73708
N         39.12391       62.44356       24.37458
C         39.01717       63.87269       24.10095
C         40.40420       64.38773       23.75766
O         41.32213       64.17111       24.53592
C         38.44144       64.62640       25.34213
C         37.08765       64.02421       25.79735
C         38.28794       66.13067       25.02675
C         36.57623       64.61052       27.11811
H         39.50500       62.15795       25.28936
H         38.33244       64.05534       23.24167
H         39.16471       64.50712       26.17991
H         37.20918       62.93387       25.97014
H         36.32366       64.17006       25.00635
H         39.25627       66.57264       24.72333
H         37.55438       66.28195       24.20516
H         37.95458       66.70439       25.91304
H         36.34699       65.69098       27.03149
H         35.63924       64.09451       27.41485
H         37.32937       64.45885       27.92146
N         40.61492       65.12302       22.62585
C         41.92019       65.69063       22.28281
C         41.94247       67.16582       22.63858
O         40.94240       67.68510       23.09893
C         42.25038       65.50034       20.77262
C         42.16229       64.04279       20.30240
O         41.45636       66.33077       19.96271
H         39.80198       65.36659       22.04354
H         42.71592       65.19320       22.87827
H         43.30056       65.82090       20.60711
H         40.53891       65.97104       19.97061
H         42.85535       63.40538       20.88849
H         41.12765       63.65260       20.40963
H         42.44502       63.98425       19.22859
N         43.07105       67.90449       22.45814
C         43.12740       69.34910       22.68346
C         42.23003       70.09128       21.69733
O         41.48308       70.95913       22.13011
C         44.58323       69.86560       22.61829
C         45.39747       69.33375       23.80564
O         45.20851       69.48630       21.41909
H         43.91916       67.41794       22.13476
H         42.77034       69.58460       23.71271
H         44.58595       70.97648       22.72300
H         44.96649       70.16389       20.73698
H         44.93325       69.66059       24.76270
H         45.44709       68.22474       23.80146
H         46.43065       69.73709       23.77130
N         42.19847       69.76085       20.36962
C         41.30122       70.38860       19.38483
C         39.81119       70.22010       19.68821
O         39.00587       70.77625       18.95454
C         41.58467       69.82620       17.97315
C         42.89765       70.38472       17.41708
C         43.21951       69.80159       16.03563
C         44.33494       70.58006       15.31660
N         45.57802       70.63990       16.08617
H         42.83412       69.01359       20.04905
H         41.48649       71.48548       19.37768
H         40.78958       70.14939       17.26468
H         41.58031       68.71303       18.00304
H         43.73820       70.17289       18.11097
H         42.77217       71.48656       17.32723
H         42.32011       69.86092       15.38386
H         43.49496       68.72977       16.14815
H         43.98250       71.61629       15.11365
H         44.52873       70.08931       14.33739
H         46.30332       71.12866       15.51336
H         45.43980       71.19299       16.96236
H         45.91167       69.67661       16.31564
N         39.36829       69.51897       20.76117
C         37.97624       69.38810       21.14820
C         37.74539       70.20694       22.40673
O         36.84822       71.03870       22.40107
C         37.66232       67.89780       21.32837
C         37.74943       67.16711       19.97593
C         37.55060       65.69533       20.14428
O         38.39253       64.90120       19.76322
O         36.43766       65.23927       20.72261
H         40.04286       69.05190       21.36513
H         37.28713       69.79103       20.37136
H         36.63776       67.78773       21.73236
H         38.37322       67.45157       22.05783
H         38.73446       67.34439       19.49673
H         36.96064       67.56257       19.30017
N         38.55958       70.08634       23.49357
C         38.45338       70.92109       24.67294
H         37.59591       71.62387       24.62182
H         38.33951       70.28136       25.57133
H         39.38416       71.52046       24.77607
H         39.32948       69.41003       23.47885
Ca        36.18020       63.04507       21.02692
O         39.17449       62.69373       18.00709
H         39.93682       62.06278       18.03025
H         39.57128       63.55043       17.70799

Ca 1.0



