%chk=holoCaM-CaMKII.loop1.water2.frame144.chk
%nprocshared=20
%mem=10GB
%nosave
#b3lyp/svp scf=(tight,noincore,xqc) Test 
#IOP(5/87=12) Density=Current Pop=(MK,readradii) iop(6/33=2) iop(6/42=6)

holoCaM-CaMKII.loop1.water2.frame144 

   0  1 
C         -3.21574       14.08702       65.98797
C         -4.45460       13.88594       65.17012
O         -5.52486       14.30467       65.58553
H         -2.46293       14.65233       65.40094
H         -3.44447       14.64093       66.92262
H         -2.79609       13.09386       66.25858
N         -4.37468       13.23539       63.97854
C         -5.53936       12.91011       63.16073
C         -6.39285       11.91744       63.93469
O         -5.98932       10.77247       64.08406
C         -5.02617       12.34327       61.81713
C         -5.99963       11.79903       60.81992
O         -5.85575       10.64979       60.43749
O         -6.90954       12.55964       60.19506
H         -3.43666       12.94646       63.65677
H         -6.11137       13.84393       62.95962
H         -4.31226       11.52212       62.04532
H         -4.45835       13.13567       61.29542
N         -7.54472       12.32889       64.53930
C         -8.38006       11.47135       65.37685
C         -9.79205       11.33178       64.82780
O        -10.54729       10.55468       65.39663
C         -8.40068       12.00855       66.81316
C         -7.03609       11.84004       67.51664
C         -7.00721       12.56271       68.87086
C         -7.97122       11.97022       69.91462
N         -8.12249       12.88314       71.04532
H         -7.82173       13.31598       64.44562
H         -7.97679       10.43554       65.40576
H         -9.15940       11.44441       67.38955
H         -8.69981       13.08065       66.78763
H         -6.24503       12.29464       66.89008
H         -6.79076       10.76108       67.63591
H         -7.26244       13.62621       68.67781
H         -5.97659       12.53219       69.29063
H         -7.58556       10.98302       70.25700
H         -8.98117       11.81075       69.49187
H         -7.19725       13.09265       71.48279
H         -8.56261       13.77185       70.70824
H         -8.75867       12.45109       71.75329
N        -10.18746       11.95225       63.67822
C        -11.37893       11.54531       62.94266
C        -10.96318       10.66390       61.75890
O        -11.83806       10.13023       61.09237
C        -12.32394       12.73224       62.61809
C        -11.75811       13.89574       61.84878
O        -12.48226       14.83827       61.57433
O        -10.46913       13.93858       61.48937
H         -9.54181       12.59756       63.20954
H        -11.99636       10.86254       63.56700
H        -12.69656       13.14307       63.58202
H        -13.20066       12.33562       62.06069
N         -9.64541       10.35980       61.52626
C         -9.19061        9.31263       60.62866
C         -9.53749        9.54939       59.18782
O        -10.17012        8.69572       58.58354
H         -8.89828       10.80495       62.07599
H         -9.60259        8.33904       60.96991
H         -8.08288        9.24330       60.70013
N         -9.11548       10.67845       58.56305
C         -9.33746       10.95540       57.14918
C         -8.02934       11.10430       56.36999
O         -8.09930       11.21133       55.15369
C        -10.28721       12.16875       57.00650
C         -9.82859       13.46007       57.63486
O        -10.66787       14.51166       57.66754
O         -8.72403       13.56969       58.13170
H         -8.62207       11.37156       59.13126
H         -9.85860       10.09349       56.67914
H        -11.23906       11.88982       57.50666
H        -10.50440       12.35908       55.93428
N         -6.80627       11.10965       56.98202
C         -5.54059       11.18961       56.26786
C         -4.87671       12.54046       56.42244
O         -3.75604       12.68628       55.95506
H         -6.74099       11.07329       58.00563
H         -5.66881       11.01301       55.17849
H         -4.87410       10.38876       56.65672
N         -5.53320       13.59724       56.98540
C         -4.98680       14.94612       57.05540
C         -5.06528       15.50138       58.47017
O         -5.82312       15.00134       59.28801
C         -5.74589       15.87509       56.07083
C         -5.53193       15.47063       54.60374
O         -7.12005       15.92190       56.36767
H         -6.49138       13.46459       57.31907
H         -3.91439       14.93658       56.76081
H         -5.34548       16.90650       56.17255
H         -7.53625       15.07090       56.06743
H         -5.91144       14.44460       54.40974
H         -6.07546       16.17573       53.93901
H         -4.45174       15.50828       54.35102
N         -4.26465       16.54563       58.82112
C         -4.24842       17.17929       60.13719
C         -4.49963       18.66503       59.94068
O         -3.78042       19.29205       59.17431
C         -2.88289       16.90234       60.83972
C         -2.75190       15.38174       61.11625
C         -2.76636       17.69219       62.16105
C         -1.39566       14.94414       61.66890
H         -3.59893       16.90020       58.11661
H         -5.04204       16.76341       60.79737
H         -2.06267       17.22884       60.16298
H         -2.90150       14.81747       60.17168
H         -3.54131       15.08347       61.83843
H         -3.56485       17.39044       62.87079
H         -1.78221       17.53103       62.64289
H         -2.84182       18.78212       61.97698
H         -0.58882       15.21212       60.95528
H         -1.18673       15.39604       62.65841
H         -1.39852       13.84087       61.80260
N         -5.48762       19.30103       60.63329
C         -5.75760       20.73024       60.50050
C         -5.01847       21.51629       61.56544
O         -4.36267       20.93553       62.41945
C         -7.28521       21.03110       60.60577
C         -8.11999       20.30192       59.55734
O         -7.77312       20.76694       61.89877
H         -6.01278       18.76499       61.33518
H         -5.39773       21.08815       59.51038
H         -7.45671       22.11040       60.41705
H         -7.91179       19.79022       61.99001
H         -8.02690       19.21504       59.71582
H         -9.18874       20.58722       59.66941
H         -7.77989       20.56374       58.53468
N         -5.13473       22.87229       61.58575
C         -4.60939       23.72014       62.64810
C         -5.15210       23.26467       63.98944
O         -4.37431       23.12382       64.92195
C         -4.99895       25.20398       62.41008
C         -4.28919       25.79189       61.18472
O         -6.39196       25.31927       62.25517
H         -5.68148       23.31749       60.83521
H         -3.49769       23.65840       62.67999
H         -4.66923       25.78774       63.30170
H         -6.62910       26.26749       62.42507
H         -3.18853       25.74338       61.32537
H         -4.55827       25.24961       60.25532
H         -4.57666       26.85798       61.06366
N         -6.48171       23.01457       64.15474
C         -7.06344       22.62850       65.43273
C         -6.49660       21.30452       65.93167
O         -6.01556       21.25574       67.05498
C         -8.60250       22.54651       65.32454
C         -9.24288       22.56262       66.72460
C        -10.76980       22.40650       66.72865
C        -11.51334       23.47448       65.91086
N        -12.96026       23.32276       66.06449
H         -7.10731       23.13051       63.34277
H         -6.83041       23.44092       66.15741
H         -8.90411       21.64637       64.74412
H         -8.96616       23.44715       64.78534
H         -8.98037       23.52616       67.21691
H         -8.82470       21.73743       67.33915
H        -11.10078       22.47486       67.78846
H        -11.03769       21.39962       66.34347
H        -11.25373       23.37064       64.83480
H        -11.21563       24.49100       66.25116
H        -13.44709       24.02730       65.46488
H        -13.25728       22.36377       65.77067
H        -13.23105       23.48393       67.06208
N         -6.51686       20.18910       65.14066
C         -6.03270       18.87649       65.57979
C         -4.55951       18.87721       65.97067
O         -4.12441       17.89585       66.55824
C         -6.25345       17.80817       64.48446
C         -7.74102       17.56195       64.19879
C         -7.92195       16.55449       63.10617
O         -8.58985       15.41553       63.35566
O         -7.49350       16.77186       61.98419
H         -6.90690       20.28282       64.19452
H         -6.61177       18.58800       66.48530
H         -5.80938       16.84024       64.80441
H         -5.73045       18.13524       63.56092
H         -8.25339       18.49405       63.89387
H         -8.22725       17.18519       65.12418
N         -3.73372       19.92401       65.68992
C         -2.35374       19.99536       66.12075
H         -1.69153       20.06542       65.23393
H         -2.22104       20.90607       66.74295
H         -2.05145       19.11692       66.72805
H         -4.08361       20.71722       65.14407
Ca        -8.34038       14.12570       60.85018
O        -10.38993       17.11978       60.89347
H        -10.69579       16.80620       61.78068
H        -11.16334       16.97434       60.29251
O         -8.57670       17.11806       58.72970
H         -9.18215       17.63289       58.13857
H         -8.57224       16.20541       58.35693

Ca 1.0



