%chk=holoCaM.loop1.water2.frame444.chk
%nprocshared=20
%mem=10GB
%nosave
#b3lyp/svp scf=(tight,noincore,xqc) Test 
#IOP(5/87=12) Density=Current Pop=(MK,readradii) iop(6/33=2) iop(6/42=6)

holoCaM.loop1.water2.frame444 

   0  1 
C          2.77722      100.01241       49.70024
C          1.72297      101.02257       50.04927
O          0.59367      100.63816       50.28969
H          3.60342      100.05796       50.44033
H          2.35696       98.98446       49.68957
H          3.18210      100.23975       48.69066
N          2.05442      102.34155       50.10292
C          1.15314      103.46962       50.37415
C          0.13817      103.66920       49.23359
O          0.29891      104.58304       48.43591
C          2.05550      104.71801       50.58365
C          1.30467      105.99969       50.75707
O          0.39977      106.12732       51.73173
O          1.52067      106.93850       50.00999
H          3.05263      102.55416       49.94241
H          0.60125      103.31717       51.32977
H          2.74190      104.83836       49.71724
H          2.67424      104.55011       51.49409
N         -0.93908      102.84157       49.09534
C         -1.87501      102.91523       47.97383
C         -2.78401      104.14242       47.95537
O         -3.44331      104.31418       46.93866
C         -2.78447      101.66328       47.94109
C         -2.01396      100.38347       47.59007
C         -2.97432       99.19154       47.48514
C         -2.26528       97.95429       46.92189
N         -3.19943       96.83738       46.78320
H         -1.07267      102.09191       49.78113
H         -1.27870      102.93281       47.03425
H         -3.54959      101.79444       47.14420
H         -3.31708      101.55412       48.91305
H         -1.22555      100.16467       48.34085
H         -1.52932      100.54164       46.60171
H         -3.80511       99.45183       46.79313
H         -3.40321       98.96896       48.48746
H         -1.42502       97.65868       47.58781
H         -1.84979       98.20181       45.91886
H         -2.70091       96.02503       46.35361
H         -3.56560       96.55692       47.72157
H         -3.99586       97.10830       46.16076
N         -2.93575      104.99983       49.00815
C         -3.88455      106.12333       48.96572
C         -3.21702      107.48278       49.13343
O         -3.91781      108.48479       49.08265
C         -5.04417      105.90407       49.96230
C         -4.66926      105.85363       51.41364
O         -5.63914      105.69160       52.33272
O         -3.51028      105.95850       51.77354
H         -2.40126      104.82964       49.87119
H         -4.37665      106.17257       47.97060
H         -5.55319      104.94962       49.70612
H         -5.78309      106.72477       49.83154
N         -1.86915      107.60919       49.26213
C         -1.18811      108.88976       49.27612
C         -1.46172      109.72233       50.50424
O         -1.78887      110.89187       50.36378
H         -1.27371      106.76990       49.27454
H         -1.42447      109.45621       48.34857
H         -0.09589      108.70045       49.26723
N         -1.24485      109.20302       51.74404
C         -1.17982      110.00675       52.96193
C          0.23220      109.89839       53.55908
O          0.45978      110.43253       54.63569
C         -2.30104      109.59699       53.95396
C         -2.08211      108.23868       54.53785
O         -2.62417      107.17231       53.93764
O         -1.18104      108.07100       55.34145
H         -1.02620      108.19936       51.82088
H         -1.36306      111.07872       52.72965
H         -3.27175      109.62740       53.41300
H         -2.36259      110.32415       54.79232
N          1.24308      109.25484       52.88828
C          2.60666      109.16084       53.37110
C          2.85261      108.04179       54.36347
O          3.99278      107.94342       54.79346
H          1.09125      108.89891       51.93582
H          2.92301      110.14319       53.78490
H          3.27362      108.94759       52.50601
N          1.90012      107.12880       54.73935
C          2.18788      106.05318       55.69854
C          1.18618      104.85456       55.58518
O          0.88868      104.51505       54.26191
C          2.15593      106.59840       57.16741
C          3.20917      107.65519       57.52665
O          0.87282      107.07763       57.48436
H          0.97780      107.16200       54.28820
H          3.18498      105.62580       55.44844
H          2.37702      105.76502       57.85935
H          0.74915      107.94157       57.01090
H          4.22919      107.26287       57.33178
H          3.04865      108.60191       56.97268
H          3.12997      107.89854       58.60770
N          1.73309      103.66164       56.27332
C          1.16736      102.33809       55.90763
C          0.30756      101.78576       57.03838
O          0.83301      101.48427       58.10152
C          2.34309      101.38068       55.54017
C          3.11230      101.93982       54.30947
C          1.84603       99.94880       55.26507
C          4.37382      101.15120       53.94898
H          1.84427      103.77632       57.30429
H          0.52096      102.40279       55.00792
H          3.03733      101.33972       56.40944
H          3.44223      102.97889       54.52173
H          2.43885      101.96792       53.42391
H          1.15853       99.93075       54.39532
H          2.69422       99.26375       55.07270
H          1.32539       99.53516       56.15002
H          4.88077      101.64276       53.09178
H          5.07368      101.13294       54.81120
H          4.13840      100.11345       53.64008
N         -1.03682      101.62782       56.86485
C         -1.91032      101.04395       57.88195
C         -1.71215       99.53132       57.95483
O         -0.95774       98.97929       57.16752
C         -3.41097      101.35829       57.59320
C         -3.71332      102.86166       57.56051
O         -3.86090      100.73391       56.41804
H         -1.44902      101.95870       55.98380
H         -1.67001      101.50562       58.86547
H         -4.02353      100.95537       58.42602
H         -3.54764      101.26279       55.64110
H         -3.41020      103.33920       58.51544
H         -3.17886      103.35027       56.72304
H         -4.80329      103.01840       57.41419
N         -2.41337       98.78991       58.85811
C         -2.39965       97.32599       58.89481
C         -2.89582       96.75857       57.57327
O         -2.28570       95.83718       57.05159
C         -3.28537       96.78505       60.04532
C         -2.73134       97.16966       61.42114
O         -4.60218       97.25911       59.91311
H         -3.02285       99.29101       59.52016
H         -1.36467       96.95631       59.07580
H         -3.27219       95.67033       59.97724
H         -5.19773       96.59005       60.34066
H         -2.71073       98.27012       61.55867
H         -3.36939       96.72954       62.21613
H         -1.70067       96.77286       61.54064
N         -3.99959       97.28585       56.97470
C         -4.54440       96.83414       55.69700
C         -3.50441       96.95790       54.58904
O         -3.19663       95.96159       53.94954
C         -5.81301       97.66709       55.39528
C         -6.58677       97.25610       54.13566
C         -7.86363       98.10826       54.03068
C         -8.71344       97.74666       52.80817
N         -9.92874       98.56272       52.76763
H         -4.47124       98.06800       57.45468
H         -4.85109       95.76838       55.79477
H         -5.54458       98.74372       55.31930
H         -6.49860       97.54625       56.26403
H         -6.86628       96.18232       54.20710
H         -5.95470       97.40696       53.23368
H         -7.58506       99.18372       53.97142
H         -8.47815       97.95225       54.94523
H         -8.99733       96.67205       52.85661
H         -8.12340       97.91662       51.88075
H         -9.68143       99.57755       52.70899
H        -10.49249       98.30283       51.92659
H        -10.50531       98.39326       53.62431
N         -2.91679       98.15745       54.31653
C         -1.92932       98.35996       53.25416
C         -0.61433       97.62400       53.50688
O          0.21637       97.60232       52.60837
C         -1.62369       99.86701       53.08937
C         -2.85894      100.67281       52.65447
C         -2.54866      102.13960       52.58979
O         -2.71342      102.75910       51.55357
O         -2.11843      102.78822       53.68687
H         -3.20899       98.96304       54.87989
H         -2.36113       97.97986       52.30133
H         -0.83536      100.01030       52.32112
H         -1.23865      100.25626       54.05818
H         -3.68901      100.54169       53.37511
H         -3.20458      100.31044       51.66112
N         -0.33286       97.02342       54.69557
C          0.90905       96.32326       54.94128
H          1.76974       97.01036       54.80984
H          0.92329       95.93539       55.98287
H          1.00756       95.46702       54.24173
H         -1.00427       97.07448       55.46477
Ca        -1.05423      105.59643       53.82808
O         -4.69827      104.66524       54.89585
H         -4.36697      104.12966       54.13251
H         -5.55159      104.23090       55.14718
O         -1.63482      105.39338       56.78549
H         -2.51994      105.80580       56.94790
H         -1.20701      105.35761       57.67706

Ca 1.0



