%chk=holoCaM-CaMKII.loop4.water1.frame381.chk
%nprocshared=20
%mem=10GB
%nosave
#b3lyp/svp scf=(tight,noincore,xqc) Test 
#IOP(5/87=12) Density=Current Pop=(MK,readradii) iop(6/33=2) iop(6/42=6)

holoCaM-CaMKII.loop4.water1.frame381 

   -3  1 
C         74.75560       73.47253       70.73268
C         75.87704       73.04553       69.83021
O         75.81619       71.97432       69.24473
H         73.93708       72.72373       70.73763
H         75.14577       73.58064       71.76831
H         74.35122       74.45257       70.40152
N         76.95312       73.85995       69.68329
C         78.13477       73.52542       68.89420
C         78.85287       72.30936       69.47582
O         78.86123       72.13198       70.68569
C         79.04690       74.77236       68.84301
C         80.41527       74.51708       68.30358
O         81.48388       74.84345       69.05066
O         80.57323       74.01917       67.20659
H         76.92690       74.76832       70.17462
H         77.83388       73.29038       67.84668
H         79.18097       75.18498       69.86454
H         78.54412       75.54613       68.22006
N         79.51988       71.45511       68.64269
C         80.22965       70.25257       69.07927
C         81.73687       70.41900       68.90880
O         82.47115       70.03119       69.80693
C         79.77973       68.99194       68.26051
C         78.23997       68.81290       68.25550
C         80.47947       67.72080       68.79679
C         77.77222       67.58530       67.45880
H         79.52392       71.67374       67.63696
H         80.01672       70.04361       70.15189
H         80.10476       69.12449       67.20659
H         77.78779       69.70914       67.78215
H         77.84989       68.73247       69.29197
H         80.25697       66.83856       68.16414
H         81.58281       67.82176       68.77074
H         80.16056       67.51136       69.83962
H         76.66490       67.58170       67.38751
H         78.20375       67.58939       66.43665
H         78.06944       66.64011       67.95570
N         82.26784       70.91366       67.75236
C         83.68230       70.79845       67.39373
C         84.47904       72.09495       67.53605
O         85.61842       72.13976       67.09264
C         83.80557       70.15402       65.99193
C         83.33934       71.02698       64.85227
O         82.05723       71.42103       64.75937
O         84.12386       71.34913       63.97503
H         81.62772       71.32015       67.06213
H         84.18039       70.08358       68.08480
H         83.22488       69.20466       65.97722
H         84.87216       69.89305       65.82093
N         84.00254       73.13145       68.27631
C         84.77232       74.32143       68.61225
C         84.97153       75.26312       67.45129
O         86.09510       75.67500       67.19895
H         83.07987       73.03519       68.71681
H         85.74181       74.03890       69.08083
H         84.19904       74.89474       69.37110
N         83.89624       75.67887       66.72837
C         83.95134       76.69824       65.68405
C         82.91307       77.80417       65.88946
O         82.89397       78.73050       65.09004
C         83.85390       76.04911       64.28264
C         82.65514       75.17377       63.98959
O         82.56813       74.63711       62.89752
O         81.71298       74.92679       64.91667
H         82.99363       75.23496       66.93508
H         84.94032       77.20950       65.70814
H         84.75619       75.41292       64.15612
H         83.90361       76.85617       63.51925
N         82.03279       77.80118       66.93394
C         81.04597       78.84582       67.14777
C         80.02822       78.93465       66.03483
O         79.47200       80.00472       65.83235
H         82.04753       77.04502       67.62885
H         81.54271       79.82594       67.30759
H         80.47813       78.61065       68.07637
N         79.65343       77.81972       65.34906
C         78.48170       77.78352       64.47605
C         77.75462       76.46435       64.63695
O         78.30289       75.56095       65.25059
C         78.82892       78.21471       63.03025
C         79.88845       77.39760       62.26062
C         79.39558       76.06179       61.75426
N         79.26019       75.83684       60.42505
O         79.12620       75.16944       62.53793
H         80.12213       76.93631       65.59326
H         77.75031       78.52601       64.86614
H         79.23752       79.24551       63.11514
H         77.90610       78.27969       62.41398
H         80.81603       77.27706       62.86098
H         80.15988       78.00890       61.37200
H         79.47635       76.57103       59.73497
H         78.92559       74.92449       60.08097
N         76.46328       76.30881       64.22928
C         75.73289       75.07891       64.51384
C         75.06710       74.58296       63.25053
O         74.09983       75.19124       62.81167
C         74.71102       75.30726       65.67210
C         74.05985       73.98881       66.12068
C         75.38539       75.95058       66.89732
H         75.96694       77.10386       63.79835
H         76.43522       74.29244       64.86644
H         73.91549       76.00439       65.32798
H         74.83093       73.28694       66.50526
H         73.32765       74.17508       66.93512
H         73.51575       73.51046       65.28732
H         76.20171       75.30412       67.28062
H         75.80538       76.94559       66.64084
H         74.64386       76.10854       67.70945
N         75.52593       73.46897       62.61023
C         74.81109       72.86933       61.48914
C         73.48708       72.33623       61.98752
O         73.29382       72.23317       63.18966
C         75.61961       71.69957       60.88569
C         76.84022       72.17140       60.14397
N         76.71221       72.81378       58.95950
O         77.95186       71.93812       60.59039
H         76.38213       73.01738       62.95219
H         74.62472       73.64515       60.71428
H         75.01080       71.11335       60.16490
H         75.91303       71.01651       61.71176
H         75.78070       72.97507       58.54860
H         77.54488       73.11584       58.43249
N         72.50416       71.99646       61.11461
C         71.23065       71.46733       61.57905
C         71.41836       70.09181       62.19906
O         70.72078       69.77738       63.15357
C         70.19886       71.44696       60.44513
C         68.85498       70.96891       60.93757
C         68.17448       71.65350       61.96345
C         68.27771       69.81975       60.38045
C         66.94417       71.18343       62.42863
C         67.04555       69.35496       60.84364
C         66.37599       70.03343       61.87236
O         65.19007       69.58930       62.33293
H         72.65902       72.14962       60.10630
H         70.84410       72.16291       62.35758
H         70.57810       70.79978       59.62456
H         70.08320       72.47803       60.04451
H         68.59473       72.54507       62.41219
H         68.78468       69.28037       59.59043
H         66.43413       71.71242       63.22439
H         66.61598       68.46484       60.40387
H         64.76690       68.79556       61.97619
N         72.38502       69.24258       61.74351
C         72.71515       67.99235       62.41804
C         73.13571       68.27800       63.85309
O         72.59907       67.65846       64.76134
C         73.79401       67.17937       61.64757
C         75.17033       67.85349       61.49680
C         76.13971       66.97401       60.76292
O         75.91285       66.62444       59.61577
O         77.27951       66.58271       61.36544
H         72.93035       69.51792       60.91466
H         71.81201       67.34003       62.43314
H         73.39403       66.95416       60.63405
H         73.93805       66.21037       62.17587
H         75.60367       68.05151       62.49458
H         75.07456       68.80550       60.94023
N         74.06543       69.24112       64.12929
C         74.51724       69.54982       65.48266
C         73.39277       70.08460       66.36138
O         73.52869       70.02943       67.57569
C         75.68880       70.56708       65.47036
C         76.91853       70.02719       64.71815
C         78.12541       70.92005       64.84384
O         79.13071       70.50026       65.38784
O         78.13783       72.16094       64.32660
H         74.46655       69.76918       63.34287
H         74.88178       68.59983       65.93424
H         75.98150       70.77021       66.52369
H         75.35933       71.52125       65.00621
H         76.69851       69.88147       63.64429
H         77.16805       69.03993       65.14303
N         72.27086       70.63948       65.82223
C         71.16615       71.16074       66.59917
H         70.23572       70.62656       66.31148
H         71.31956       71.03999       67.69113
H         71.03916       72.24071       66.37441
H         72.19134       70.72256       64.80571
Ca        79.94192       73.50746       64.64712
O         80.44465       71.51822       62.36642
H         80.19640       70.85083       61.67921
H         80.18281       72.39126       61.97950

Ca 1.0



