%chk=holoCaM-CaMKII.loop2.water2.frame54.chk
%nprocshared=20
%mem=10GB
%nosave
#b3lyp/svp scf=(tight,noincore,xqc) Test 
#IOP(5/87=12) Density=Current Pop=(MK,readradii) iop(6/33=2) iop(6/42=6)

holoCaM-CaMKII.loop2.water2.frame54 

   -2  1 
C         13.11825       73.91347      100.21951
C         12.10701       74.19654      101.29693
O         10.98931       74.56978      100.97885
H         14.08517       73.57085      100.64747
H         12.73528       73.10911       99.55547
H         13.30319       74.82630       99.61775
N         12.42770       74.00367      102.60426
C         11.47987       74.15186      103.70503
C         11.03018       75.59813      103.88860
O         11.88049       76.45346      104.09343
C         12.14974       73.64533      105.00494
C         11.22241       73.55854      106.18132
O         11.69471       73.12864      107.36541
O         10.04335       73.84240      106.07407
H         13.38083       73.66988      102.81890
H         10.60563       73.49514      103.49889
H         13.00428       74.30678      105.26495
H         12.54494       72.62134      104.83391
N          9.70142       75.92939      103.88001
C          9.20509       77.28363      104.12991
C          8.30039       77.38366      105.36590
O          7.94379       78.50002      105.71659
C          8.45322       77.77970      102.89166
H          9.01245       75.18846      103.69522
H         10.05996       77.97125      104.30782
H          8.10412       78.82453      103.03729
H          9.12410       77.75708      102.00660
H          7.57246       77.13261      102.68789
N          7.87395       76.28809      106.06436
C          7.01757       76.34750      107.25277
C          7.68725       75.66673      108.44739
O          7.83370       76.32810      109.46633
C          5.58745       75.82197      106.94324
C          5.54367       74.60900      106.06138
O          5.09782       74.71225      104.92867
O          6.08749       73.44460      106.43413
H          8.13433       75.35405      105.73021
H          6.84961       77.40259      107.56883
H          5.07620       76.62799      106.36920
H          5.00637       75.67135      107.87823
N          8.13186       74.37522      108.40950
C          8.76561       73.70189      109.53817
C          8.02645       72.44836      109.98187
O          8.49058       71.81268      110.91759
H          8.05584       73.84075      107.54009
H          8.84028       74.37591      110.41855
H          9.79720       73.41890      109.24458
N          6.86351       72.04154      109.39366
C          6.07212       70.90484      109.86285
C          6.76868       69.54369      109.77974
O          6.25112       68.61141      110.37911
C          4.70416       70.86494      109.13346
C          4.78028       70.69868      107.62883
N          3.64335       70.66763      106.89849
O          5.85679       70.60797      107.06021
H          6.47377       72.61058      108.63697
H          5.86268       71.09021      110.93995
H          4.17544       71.82220      109.33521
H          4.08845       70.04096      109.55269
H          2.72299       70.75460      107.35202
H          3.68298       70.55917      105.87556
N          7.90872       69.33377      109.05907
C          8.62146       68.05872      109.03240
C          8.55493       67.34400      107.69345
O          9.21079       66.32084      107.55787
H          8.29892       70.10373      108.50456
H          8.22077       67.35085      109.79001
H          9.68150       68.25728      109.29795
N          7.73782       67.76950      106.68930
C          7.55312       67.06828      105.41898
C          7.81154       68.00482      104.24802
O          8.11866       69.16814      104.46479
C          6.09919       66.52025      105.35880
C          5.87387       65.42917      106.40775
O          5.16499       67.55004      105.56776
H          7.15958       68.60175      106.84546
H          8.25497       66.21051      105.32093
H          5.89938       66.02968      104.38042
H          5.12995       68.08748      104.73446
H          6.02786       65.82100      107.43470
H          4.83557       65.04198      106.32914
H          6.57397       64.58363      106.23320
N          7.64352       67.56793      102.96526
C          7.73523       68.44404      101.80456
C          6.32753       68.64662      101.28037
O          5.65991       67.67006      100.96541
C          8.67916       67.86633      100.70528
C         10.09428       67.59702      101.27767
C          8.74693       68.84431       99.51152
C         11.07986       67.02718      100.25187
H          7.35723       66.59088      102.80155
H          8.14212       69.43195      102.09921
H          8.26034       66.90100      100.34246
H         10.00914       66.85805      102.10294
H         10.52558       68.53266      101.68937
H          9.34481       68.43391       98.67477
H          7.73934       69.02724       99.09361
H          9.18751       69.81283       99.82945
H         12.04423       66.79976      100.75197
H         10.68005       66.09447       99.80143
H         11.29749       67.76150       99.44914
N          5.82109       69.90485      101.14324
C          4.49196       70.17718      100.61170
C          4.59471       70.42408       99.12325
O          5.69633       70.42758       98.60016
C          3.85439       71.37113      101.34739
C          3.72666       71.11382      102.82432
O          2.62753       71.11562      103.35464
O          4.82463       70.89951      103.57446
H          6.43527       70.70849      101.33256
H          3.84157       69.28332      100.74195
H          2.84558       71.56932      100.92523
H          4.47668       72.28077      101.19778
N          3.48248       70.55260       98.35036
C          3.56911       70.60174       96.89600
C          4.30899       71.83813       96.38649
O          5.22733       71.64764       95.60193
C          2.18553       70.40209       96.23818
C          2.29765       70.13454       94.75166
C          1.65257       70.96732       93.82257
C          3.03725       69.03022       94.27957
C          1.75126       70.70336       92.45142
C          3.13937       68.77664       92.91076
C          2.49634       69.61166       91.99652
H          2.55480       70.50952       98.79992
H          4.16032       69.70963       96.59824
H          1.52157       71.26376       96.43907
H          1.70671       69.50605       96.69006
H          1.06988       71.81607       94.15698
H          3.53753       68.35854       94.96482
H          1.24881       71.34469       91.73975
H          3.71516       67.92896       92.56087
H          2.57338       69.40924       90.93624
N          4.02124       73.12168       96.78453
C          4.76585       74.30194       96.34576
C          6.27016       74.12582       96.43778
O          6.97744       74.42975       95.48787
C          4.31806       75.39415       97.33008
C          2.88851       74.99854       97.59943
C          3.01121       73.48615       97.76021
H          4.45694       74.56034       95.30810
H          4.85292       75.28444       98.30182
H          4.47216       76.43268       96.96608
H          2.40351       75.51643       98.45425
H          2.30636       75.20868       96.67332
H          3.38099       73.20970       98.77235
H          2.01743       73.04066       97.57607
N          6.81038       73.59922       97.56920
C          8.23750       73.38403       97.78361
C          8.79133       72.45313       96.72297
O          9.72868       72.82371       96.03062
C          8.48238       72.76769       99.17795
C          7.96561       73.65538      100.32135
C          8.06739       72.98274      101.65305
O          7.43623       73.55002      102.68470
O          8.62322       71.90710      101.79713
H          6.14877       73.31274       98.30349
H          8.77121       74.36028       97.74040
H          9.57008       72.58615       99.32479
H          7.95078       71.79404       99.23385
H          6.88754       73.86362      100.18895
H          8.48984       74.63336      100.34516
N          8.23960       71.22435       96.53355
C          8.71396       70.29381       95.53751
H          9.76439       70.01076       95.75571
H          8.08565       69.37676       95.55636
H          8.64347       70.75059       94.52829
H          7.43994       70.93953       97.10712
Ca         7.10985       72.57563      104.66537
O          9.28143       70.95085      106.28519
H          9.52060       71.43395      107.11428
H          9.93118       70.20544      106.23844
O         10.83489       70.82161      103.68152
H         11.53837       71.03015      103.01753
H         10.15975       70.31030      103.17287

Ca 1.0



