%chk=holoCaM-CaMKII.loop4.water2.frame1.chk
%nprocshared=20
%mem=10GB
%nosave
#b3lyp/svp scf=(tight,noincore,xqc) Test 
#IOP(5/87=12) Density=Current Pop=(MK,readradii) iop(6/33=2) iop(6/42=6)

holoCaM-CaMKII.loop4.water2.frame1 

   -3  1 
C         57.23420       64.45535       60.27904
C         56.96527       64.59681       61.74428
O         55.85438       64.32706       62.17860
H         58.05202       63.71994       60.12511
H         56.32733       64.09869       59.74607
H         57.53879       65.43698       59.86117
N         57.96187       64.99771       62.57983
C         57.77554       65.10481       64.01825
C         56.78244       66.21074       64.33875
O         57.06427       67.37262       64.07789
C         59.12945       65.35474       64.70082
C         59.06258       65.32518       66.19480
O         60.09095       65.47001       66.82662
O         57.90372       65.11468       66.84758
H         58.89318       65.18531       62.17568
H         57.40000       64.12000       64.38013
H         59.54579       66.33251       64.37280
H         59.83357       64.55207       64.39144
N         55.57066       65.89674       64.87002
C         54.53160       66.88287       65.12994
C         54.83302       67.61382       66.43723
O         55.01428       68.82297       66.41349
C         53.11750       66.20581       65.14343
C         52.82885       65.35077       63.87095
C         51.99917       67.24398       65.35052
C         52.84749       66.11392       62.54314
H         55.35853       64.90271       65.00534
H         54.51769       67.61476       64.29144
H         53.06867       65.49798       65.99821
H         51.83265       64.86904       63.98054
H         53.56343       64.52376       63.79384
H         52.12964       67.77728       66.31438
H         51.99332       67.99741       64.53576
H         51.00925       66.73906       65.37625
H         53.84119       66.56945       62.35709
H         52.64004       65.40381       61.71416
H         52.06556       66.89926       62.52008
N         54.85349       66.93752       67.62559
C         54.99766       67.59305       68.93024
C         56.39160       68.15594       69.22820
O         56.54452       68.77244       70.27420
C         54.56469       66.63259       70.06713
C         55.42080       65.40395       70.23228
O         55.12808       64.52498       71.20897
O         56.37320       65.19154       69.50074
H         54.65304       65.92673       67.60319
H         54.27455       68.43861       68.95851
H         53.51958       66.30412       69.87797
H         54.57277       67.18664       71.03072
N         57.45139       67.99299       68.38772
C         58.77468       68.53626       68.66549
C         59.44607       67.89078       69.86507
O         59.82374       68.59123       70.79286
H         57.32289       67.49380       67.49831
H         58.70374       69.63794       68.79854
H         59.42827       68.34507       67.78658
N         59.67063       66.54866       69.87039
C         60.41958       65.81785       70.89542
C         61.66170       65.14047       70.30955
O         62.29472       64.36140       71.00938
C         59.50335       64.80850       71.63181
C         58.78735       63.77647       70.79264
O         58.89357       63.75196       69.45100
O         58.02762       62.99619       71.34220
H         59.31048       66.02072       69.06970
H         60.79071       66.50945       71.68432
H         58.72125       65.39457       72.16162
H         60.10341       64.28231       72.40691
N         62.11659       65.44422       69.05931
C         63.31712       64.87458       68.46851
C         63.18619       63.43504       68.00712
O         64.14767       62.95242       67.42551
H         61.64975       66.18382       68.51986
H         64.17496       64.98971       69.16550
H         63.55221       65.45890       67.55128
N         62.05167       62.69334       68.17943
C         61.89066       61.35123       67.62116
C         60.70472       61.30591       66.67682
O         59.90950       62.23446       66.64419
C         61.69889       60.31137       68.74874
C         62.99426       60.09272       69.54384
C         62.81973       59.05149       70.62103
N         62.00410       59.27460       71.67764
O         63.43674       57.99896       70.54685
H         61.25527       63.09190       68.69271
H         62.77892       61.06582       67.01676
H         61.42137       59.32925       68.30552
H         60.86666       60.63299       69.41480
H         63.34411       61.03870       70.00764
H         63.77301       59.74234       68.83011
H         61.49211       60.16347       71.77091
H         61.89929       58.56204       72.41578
N         60.54272       60.22637       65.85880
C         59.38167       60.02208       65.00499
C         58.75759       58.70037       65.40156
O         59.34895       57.65138       65.18361
C         59.77043       60.07064       63.50021
C         58.61880       59.61800       62.58270
C         60.18014       61.50022       63.10840
H         61.26904       59.49301       65.86192
H         58.63054       60.82638       65.17410
H         60.62787       59.38426       63.32247
H         58.35375       58.55916       62.77986
H         57.71702       60.24886       62.72908
H         58.93088       59.67582       61.51791
H         59.32470       62.19853       63.24849
H         61.03142       61.85459       63.72493
H         60.48511       61.53655       62.04081
N         57.55460       58.69884       66.03085
C         56.84448       57.49661       66.44065
C         56.33813       56.75648       65.21019
O         56.46516       57.26903       64.10632
C         55.67030       57.93636       67.35940
C         54.90122       56.82925       68.02842
N         55.51867       55.95929       68.85957
O         53.69707       56.73885       67.84791
H         57.13959       59.60770       66.25317
H         57.54394       56.85942       67.02414
H         54.97293       58.57412       66.77117
H         56.08548       58.55997       68.17711
H         56.52912       56.03158       69.04440
H         54.98018       55.21487       69.32672
N         55.73448       55.54344       65.32219
C         55.09127       54.88319       64.19300
C         53.89722       55.70673       63.73649
O         53.75788       55.94490       62.54708
C         54.63553       53.46475       64.58423
C         53.93970       52.77494       63.43149
C         54.61111       52.54125       62.21651
C         52.59984       52.37639       63.55987
C         53.94748       51.92890       61.14926
C         51.94006       51.76176       62.49288
C         52.61128       51.53835       61.28227
O         51.98326       50.95253       60.24322
H         55.70569       55.08694       66.24498
H         55.82227       54.77621       63.36078
H         53.95623       53.53047       65.46232
H         55.52139       52.86367       64.88434
H         55.64448       52.83793       62.08869
H         52.06219       52.54783       64.48394
H         54.47186       51.76109       60.21654
H         50.90590       51.46412       62.60795
H         51.05857       50.67130       60.29451
N         52.98851       56.16748       64.64264
C         51.82751       56.97711       64.27793
C         52.19882       58.36165       63.72451
O         51.28942       59.05357       63.28750
C         50.87106       57.15145       65.48202
C         50.35585       55.80890       66.03232
C         49.36394       56.03017       67.13761
O         49.72996       56.68592       68.25577
O         48.22322       55.60853       67.03189
H         53.12855       55.90953       65.62657
H         51.26815       56.42802       63.48731
H         49.98805       57.74104       65.14761
H         51.38446       57.71759       66.29052
H         51.18943       55.20021       66.43855
H         49.87292       55.23465       65.21135
N         53.48702       58.82645       63.67692
C         53.86800       60.10145       63.06302
C         54.61056       59.88600       61.74664
O         54.80791       60.86013       61.03341
C         54.74514       60.93685       64.02475
C         53.99736       61.34589       65.29995
C         54.88504       62.11937       66.23835
O         54.59464       63.25887       66.55744
O         55.97616       61.53976       66.77407
H         54.24177       58.24633       64.05302
H         52.95728       60.68239       62.79831
H         55.07956       61.86515       63.50949
H         55.64947       60.34391       64.28771
H         53.62956       60.44639       65.83457
H         53.12392       61.97196       65.01323
N         55.03540       58.65341       61.34515
C         55.66251       58.38277       60.06938
H         56.68541       57.98664       60.23727
H         55.06703       57.61058       59.53536
H         55.72143       59.28313       59.42502
H         54.92487       57.84914       61.96259
Ca        57.39986       62.62125       68.16939
O         57.59917       60.03702       69.76671
H         56.64150       60.27986       69.83242
H         58.01193       60.44428       70.56820
O         54.63458       62.28502       69.39721
H         53.77675       62.57684       68.99877
H         54.38763       61.54839       70.00918

Ca 1.0



