%chk=holoCaM.loop4.water3.frame29.chk
%nprocshared=20
%mem=10GB
%nosave
#b3lyp/svp scf=(tight,noincore,xqc) Test 
#IOP(5/87=12) Density=Current Pop=(MK,readradii) iop(6/33=2) iop(6/42=6)

holoCaM.loop4.water3.frame29 

   -3  1 
C         85.95994      107.06306       20.35949
C         85.72245      108.17631       19.37545
O         85.01374      107.97044       18.40207
H         84.98647      106.72643       20.77637
H         86.46049      106.20832       19.86190
H         86.59410      107.39848       21.20895
N         86.26071      109.40556       19.59466
C         85.97977      110.57323       18.76711
C         86.52102      110.44917       17.34540
O         87.71968      110.27452       17.17624
C         86.58631      111.82075       19.44110
C         86.19919      113.07402       18.72452
O         85.02137      113.36698       18.61750
O         87.14322      113.87988       18.20299
H         86.83958      109.53260       20.44025
H         84.87620      110.71378       18.74128
H         87.69401      111.73198       19.48052
H         86.20811      111.89980       20.48310
N         85.68390      110.60998       16.27644
C         86.12730      110.65245       14.87865
C         85.79281      111.99680       14.20464
O         86.05672      112.11573       13.01547
C         85.48384      109.48576       14.05494
C         83.93612      109.58139       14.01497
C         85.94927      108.12260       14.59391
C         83.26786      108.62474       13.02759
H         84.67979      110.74567       16.46610
H         87.23131      110.53273       14.81538
H         85.86049      109.57295       13.01107
H         83.63179      110.60174       13.70881
H         83.53568      109.38371       15.02041
H         85.57958      107.29338       13.95755
H         87.05824      108.06961       14.58742
H         85.58775      107.96277       15.63132
H         83.62901      108.82708       11.99699
H         83.45574      107.56493       13.28827
H         82.16873      108.78870       13.05166
N         85.17163      113.02584       14.86227
C         84.53652      114.14052       14.13973
C         84.40190      115.45621       14.92130
O         83.93402      116.41920       14.32817
C         83.13682      113.67636       13.65804
C         82.24235      113.21213       14.78991
O         82.68210      113.27072       16.06452
O         81.14439      112.74068       14.54485
H         84.94533      112.88226       15.84982
H         85.15090      114.39041       13.24608
H         83.27677      112.82267       12.96141
H         82.63439      114.48763       13.08785
N         84.78267      115.59862       16.22185
C         84.70514      116.85504       16.95798
C         83.30633      117.38682       17.24943
O         83.23269      118.44414       17.86002
H         85.21123      114.80985       16.70770
H         85.27854      117.62774       16.40260
H         85.19907      116.71219       17.94429
N         82.15883      116.74852       16.87137
C         80.82133      117.29107       17.14122
C         80.41118      117.26922       18.62446
O         79.29148      117.67249       18.91011
C         79.75975      116.60682       16.24201
C         79.56510      115.13670       16.46179
O         80.27041      114.47642       17.39160
O         78.75978      114.52910       15.77546
H         82.23067      115.88160       16.32478
H         80.80679      118.35341       16.80929
H         80.05711      116.75475       15.18087
H         78.77910      117.11063       16.38940
N         81.25484      116.87611       19.62754
C         80.89875      116.94023       21.03957
C         79.94952      115.85196       21.50985
O         79.54877      115.91235       22.66196
H         82.22013      116.61207       19.40867
H         80.46932      117.94376       21.25520
H         81.81912      116.83806       21.65422
N         79.56435      114.82015       20.70351
C         78.62643      113.77533       21.11599
C         79.25884      112.39312       21.00276
O         80.37050      112.27259       20.51480
C         77.40081      113.82849       20.17931
C         76.68110      115.18457       20.22550
C         75.55927      115.23465       19.22161
N         75.81691      115.13984       17.89515
O         74.40874      115.37725       19.60637
H         79.92928      114.77320       19.74764
H         78.30030      113.92504       22.16796
H         76.66995      113.03534       20.44917
H         77.75440      113.63145       19.14350
H         77.38244      116.01112       19.98764
H         76.28621      115.34422       21.25274
H         76.78202      115.03687       17.55116
H         75.05149      115.18016       17.20642
N         78.55296      111.29127       21.40244
C         78.97200      109.91500       21.13922
C         77.92080      109.28283       20.24039
O         76.73701      109.43512       20.50429
C         79.23515      109.10307       22.43783
C         77.98349      108.86773       23.29511
C         79.88880      107.75015       22.09035
H         77.63781      111.43624       21.85223
H         79.94256      109.91905       20.59906
H         79.97139      109.67270       23.04744
H         78.26018      108.31326       24.21775
H         77.52569      109.83034       23.59805
H         77.23372      108.25888       22.74739
H         80.83021      107.91070       21.52027
H         80.14711      107.19192       23.01490
H         79.21069      107.12048       21.47542
N         78.29342      108.58828       19.13226
C         77.35347      108.13054       18.11579
C         77.25511      106.61439       18.09171
O         77.94668      105.94096       18.83988
C         77.86272      108.71216       16.77459
C         76.99951      108.50549       15.56207
N         75.74471      109.00493       15.51541
O         77.45242      107.91574       14.59300
H         79.29441      108.41940       18.97370
H         76.33481      108.51828       18.33092
H         78.87794      108.30297       16.57573
H         77.95072      109.80313       16.89833
H         75.35393      109.52332       16.31477
H         75.16824      108.88248       14.67090
N         76.35310      106.01954       17.26204
C         76.22241      104.57944       17.06590
C         77.47642      104.00699       16.41841
O         77.98146      103.00808       16.90974
C         74.90016      104.24828       16.32528
C         74.63651      104.95929       15.01460
C         75.17661      104.49344       13.80645
C         73.78685      106.08295       14.99387
C         74.87099      105.14165       12.60151
C         73.49736      106.73618       13.79569
C         74.03242      106.26754       12.59482
O         73.72737      106.90187       11.44473
H         75.71831      106.63533       16.74305
H         76.09881      104.08475       18.05670
H         74.09683      104.56065       17.02988
H         74.76471      103.15229       16.19907
H         75.81456      103.61925       13.79342
H         73.35198      106.46263       15.91069
H         75.28137      104.76596       11.67303
H         72.85015      107.60497       13.80248
H         74.06077      106.60488       10.58658
N         78.08517      104.62871       15.36636
C         79.36234      104.18153       14.79667
C         80.54127      104.27689       15.77808
O         81.61916      103.82932       15.41146
C         79.72918      105.02613       13.54789
C         78.75658      104.91922       12.36041
C         78.76638      103.56124       11.70725
O         78.34066      102.47079       12.37151
O         79.14146      103.44647       10.55098
H         77.62734      105.46058       14.97164
H         79.26510      103.11564       14.51016
H         80.73637      104.74037       13.17078
H         79.78179      106.09261       13.86311
H         79.08326      105.66684       11.60399
H         77.72622      105.18548       12.66347
N         80.43333      104.84528       17.01541
C         81.54562      104.97782       17.95705
C         81.31010      104.19165       19.24364
O         82.20109      104.18344       20.08327
C         81.71690      106.45860       18.34623
C         81.90339      107.40210       17.15102
C         81.92218      108.84320       17.58877
O         81.84668      109.18045       18.89055
O         81.97465      109.72519       16.75162
H         79.53612      105.23654       17.29999
H         82.48704      104.60290       17.50026
H         82.58100      106.57181       19.03853
H         80.79839      106.76232       18.89058
H         81.05345      107.27907       16.44860
H         82.84551      107.15888       16.61368
N         80.14377      103.53339       19.49700
C         79.90925      102.83271       20.74016
H         78.89043      102.38897       20.73712
H         80.65403      102.01954       20.86603
H         79.98064      103.54203       21.59260
H         79.38129      103.53739       18.81261
Ca        81.87533      112.29261       17.92812
O         82.76105      114.17358       20.21460
H         82.84858      114.45631       19.26961
H         83.39009      114.75694       20.70825
O         79.24367      111.80042       17.26424
H         78.36895      112.19566       17.02607
H         79.61450      111.47553       16.40484
O         83.20509      111.26870       20.83539
H         83.32488      110.29229       20.72985
H         83.93185      111.54034       21.44954

Ca 1.0



