%chk=holoCaM-CaMKII.loop1.water2.frame173.chk
%nprocshared=20
%mem=10GB
%nosave
#b3lyp/svp scf=(tight,noincore,xqc) Test 
#IOP(5/87=12) Density=Current Pop=(MK,readradii) iop(6/33=2) iop(6/42=6)

holoCaM-CaMKII.loop1.water2.frame173 

   0  1 
C         13.14186       62.41339       16.57611
C         13.06205       63.90528       16.45799
O         13.50638       64.59250       17.35987
H         12.11959       61.98268       16.53749
H         13.74358       62.00663       15.73611
H         13.61980       62.11877       17.53488
N         12.51416       64.46599       15.34543
C         12.39321       65.90307       15.09487
C         11.46239       66.58294       16.10395
O         10.28383       66.75690       15.82324
C         11.90376       66.09693       13.63991
C         11.70087       67.53387       13.27679
O         12.71224       68.41304       13.36901
O         10.60604       67.90784       12.89509
H         12.18768       63.81456       14.61341
H         13.39765       66.38042       15.15606
H         10.94472       65.55148       13.49247
H         12.65593       65.66302       12.94553
N         11.94596       67.01657       17.30290
C         11.12801       67.68233       18.31087
C         10.67772       69.05907       17.83745
O          9.47908       69.27827       17.73019
C         11.91133       67.82020       19.64427
C         12.25111       66.47749       20.32708
C         11.00285       65.76615       20.88373
C         11.33161       64.49739       21.68955
N         11.88667       63.43083       20.85465
H         12.93761       66.85466       17.51474
H         10.22413       67.06802       18.50502
H         11.32863       68.43346       20.36635
H         12.86571       68.35479       19.44668
H         12.91939       66.70143       21.18724
H         12.80894       65.82445       19.62723
H         10.29594       65.49835       20.07245
H         10.49007       66.47115       21.57430
H         10.38709       64.12958       22.14910
H         12.03684       64.74116       22.51511
H         12.02694       62.57949       21.44564
H         11.22022       63.19560       20.08352
H         12.81063       63.70992       20.45655
N         11.58073       70.05596       17.59435
C         11.18566       71.43279       17.28223
C         10.50190       71.61645       15.92165
O         10.05470       72.72513       15.66048
C         12.37358       72.40362       17.47726
C         13.57322       72.08499       16.63577
O         14.74430       71.79271       17.23168
O         13.50383       72.10763       15.42018
H         12.57953       69.84831       17.73574
H         10.44019       71.74440       18.04892
H         12.68226       72.35734       18.54557
H         12.04781       73.44716       17.27474
N         10.31072       70.59223       15.03893
C          9.44045       70.71794       13.87275
C         10.08308       71.28391       12.61759
O          9.39251       71.34803       11.61019
H         10.64490       69.64926       15.27811
H          8.53341       71.30062       14.14279
H          9.07666       69.70424       13.61140
N         11.38242       71.69019       12.57234
C         12.03340       72.19683       11.35569
C         12.22133       71.15277       10.24162
O         12.76642       71.51447        9.20728
C         13.37639       72.88186       11.71131
C         14.37759       72.02924       12.44806
O         14.11112       70.74614       12.76084
O         15.41023       72.54182       12.84330
H         11.91679       71.67602       13.44953
H         11.39861       73.00666       10.93055
H         13.13874       73.74451       12.37177
H         13.84618       73.29097       10.78974
N         11.76555       69.86964       10.34003
C         11.86770       68.89542        9.26115
C         13.24180       68.27719        9.10774
O         13.37882       67.40343        8.26234
H         11.25682       69.57203       11.17622
H         11.51533       69.34408        8.30652
H         11.18858       68.04736        9.49797
N         14.28962       68.62788        9.90496
C         15.58554       67.95656        9.88047
C         15.88070       67.34577       11.24602
O         15.14521       67.58245       12.19283
C         16.70038       68.95734        9.46169
C         16.59663       69.29934        7.97430
O         16.62720       70.15689       10.19174
H         14.16485       69.37727       10.59688
H         15.57975       67.10760        9.16126
H         17.70300       68.49832        9.60837
H         16.46600       69.92785       11.14088
H         15.61994       69.77152        7.73902
H         17.40921       70.00470        7.69482
H         16.71478       68.37938        7.36234
N         16.93130       66.49321       11.39613
C         17.30796       65.85622       12.65797
C         18.77611       66.13219       12.92565
O         19.58400       66.04116       12.01019
C         17.00349       64.33077       12.61041
C         15.46513       64.12703       12.52249
C         17.56837       63.61811       13.86171
C         15.03112       62.67077       12.36004
H         17.47904       66.25004       10.55534
H         16.71704       66.26252       13.51050
H         17.49400       63.89467       11.71230
H         15.06766       64.67766       11.64447
H         14.98172       64.54225       13.43582
H         17.11622       64.03094       14.78923
H         17.38899       62.52669       13.82562
H         18.67000       63.73465       13.92042
H         15.47183       62.24380       11.43515
H         15.32226       62.05293       13.23238
H         13.92408       62.62846       12.28185
N         19.19340       66.42266       14.18948
C         20.57477       66.73606       14.53489
C         21.16736       65.67609       15.45069
O         20.46729       64.76108       15.86307
C         20.61340       68.12235       15.23016
C         20.02193       69.20771       14.33660
O         19.87695       68.07183       16.42285
H         18.49712       66.42428       14.94842
H         21.20672       66.76970       13.62054
H         21.67065       68.38409       15.45887
H         20.09417       68.89078       16.93927
H         20.07404       70.18793       14.85655
H         20.58211       69.27446       13.38203
H         18.95384       68.98490       14.12638
N         22.47395       65.76856       15.83116
C         23.08951       64.90344       16.83736
C         22.36868       65.06762       18.15910
O         22.17515       64.08933       18.86643
C         24.58342       65.25925       17.05749
C         25.43558       64.95014       15.82395
O         24.71401       66.61619       17.40377
H         23.03805       66.53309       15.43060
H         23.03817       63.83709       16.52011
H         24.95925       64.62085       17.89319
H         25.60089       66.72286       17.83674
H         26.50045       65.17948       16.04229
H         25.35818       63.87152       15.57038
H         25.11598       65.55400       14.95063
N         21.95046       66.30431       18.54625
C         21.28191       66.57743       19.80836
C         19.99323       65.76620       19.89356
O         19.81142       65.00614       20.83381
C         20.94214       68.09268       19.96691
C         22.04279       69.11386       19.59040
C         23.38718       68.93603       20.30387
C         24.38503       69.99090       19.78846
N         25.68658       69.86606       20.44085
H         22.12240       67.07940       17.89781
H         21.97337       66.29879       20.63462
H         20.62151       68.26186       21.01789
H         20.08027       68.35379       19.31792
H         21.64927       70.13107       19.80712
H         22.22009       69.08760       18.49621
H         23.79672       67.92540       20.09000
H         23.24495       69.04693       21.39994
H         23.98102       71.01131       19.97360
H         24.51970       69.86697       18.68931
H         25.58646       70.01245       21.47109
H         26.09611       68.92288       20.25071
H         26.32963       70.59645       20.05648
N         19.05302       65.89897       18.91337
C         17.75200       65.23314       18.90289
C         17.85172       63.72245       18.73007
O         16.83950       63.05924       18.91084
C         16.87593       65.81764       17.76209
C         16.58065       67.31152       17.99216
C         15.84931       67.96854       16.85473
O         16.43526       68.12868       15.65098
O         14.75524       68.46896       17.04956
H         19.27069       66.54226       18.14572
H         17.25301       65.43785       19.87658
H         15.90842       65.27875       17.70787
H         17.40450       65.66704       16.79828
H         17.51476       67.88965       18.13371
H         15.97937       67.40060       18.92364
N         19.00943       63.10873       18.35272
C         19.13806       61.67554       18.17711
H         19.95164       61.29840       18.83154
H         18.20566       61.12868       18.43029
H         19.39821       61.45601       17.12022
H         19.84164       63.67214       18.15064
Ca        15.36131       69.52359       14.21182
O         18.03805       70.96900       12.78946
H         18.98439       71.24828       12.83665
H         17.61653       71.66999       12.23735
O         17.49865       71.17553       15.69638
H         17.55338       72.10292       16.03702
H         16.90974       70.70911       16.33975

Ca 1.0



