%chk=holoCaM-CaMKII.loop2.water2.frame67.chk
%nprocshared=20
%mem=10GB
%nosave
#b3lyp/svp scf=(tight,noincore,xqc) Test 
#IOP(5/87=12) Density=Current Pop=(MK,readradii) iop(6/33=2) iop(6/42=6)

holoCaM-CaMKII.loop2.water2.frame67 

   -2  1 
C         70.03690       79.65212       66.28013
C         68.59329       79.42609       66.63377
O         67.90472       78.72237       65.90913
H         70.54270       80.29829       67.03001
H         70.56930       78.67852       66.24926
H         70.11146       80.14386       65.28861
N         68.07119       79.98701       67.75773
C         66.69622       79.78517       68.19985
C         65.71195       80.37011       67.19388
O         65.82509       81.54783       66.88232
C         66.51298       80.45364       69.58336
C         65.20388       80.14116       70.24498
O         64.93207       80.66062       71.45582
O         64.40018       79.39346       69.71999
H         68.69651       80.56117       68.34533
H         66.52687       78.69222       68.32774
H         66.61875       81.55556       69.48327
H         67.30637       80.08693       70.26946
N         64.70359       79.60966       66.66957
C         63.73476       80.11907       65.69911
C         62.31021       80.17988       66.24525
O         61.44955       80.68328       65.53604
C         63.77247       79.23436       64.44842
H         64.61596       78.62910       66.97385
H         64.00070       81.15648       65.40253
H         63.07284       79.61514       63.67392
H         64.79691       79.21955       64.02081
H         63.48102       78.19204       64.70704
N         61.97325       79.67977       67.46925
C         60.61853       79.69647       68.01109
C         60.57506       80.38419       69.37954
O         59.82001       81.33811       69.51129
C         60.01131       78.27346       67.95126
C         60.89128       77.15233       68.42787
O         61.26564       76.29354       67.64479
O         61.24469       77.05702       69.71065
H         62.68962       79.20963       68.03095
H         59.93892       80.29323       67.36036
H         59.81149       78.06562       66.87635
H         59.03357       78.24969       68.47864
N         61.35960       79.99477       70.42769
C         61.35836       80.65027       71.73454
C         61.02073       79.70567       72.87911
O         61.05954       80.14369       74.02006
H         62.02050       79.22229       70.29692
H         60.64014       81.49843       71.76800
H         62.37076       81.06708       71.91290
N         60.65150       78.41167       72.65839
C         60.24467       77.48104       73.71008
C         61.33788       77.13164       74.72238
O         60.99429       76.58418       75.76076
C         59.66686       76.18733       73.07720
C         60.63797       75.41924       72.19902
N         60.23733       74.29414       71.56674
O         61.78008       75.81582       72.03444
H         60.57216       78.09434       71.69047
H         59.42242       77.97622       74.27294
H         58.79892       76.47222       72.44311
H         59.29891       75.51445       73.88003
H         59.27540       73.94375       71.67390
H         60.89167       73.77658       70.96104
N         62.66057       77.36445       74.48570
C         63.71799       77.08536       75.45196
C         64.60765       75.90630       75.08602
O         65.59430       75.70890       75.78086
H         62.93841       77.76242       73.58337
H         63.30289       76.86462       76.45940
H         64.33404       78.00449       75.55070
N         64.28979       75.02848       74.08836
C         65.04714       73.80637       73.80565
C         65.46953       73.71598       72.34008
O         65.10228       74.56931       71.54601
C         64.18351       72.57934       74.21078
C         63.96128       72.55068       75.72730
O         62.92755       72.60805       73.57834
H         63.42408       75.17437       73.56309
H         65.98626       73.78067       74.40065
H         64.70634       71.63061       73.95791
H         63.08239       72.53356       72.60189
H         64.93692       72.50337       76.25760
H         63.41066       73.45273       76.06885
H         63.36865       71.65434       76.00773
N         66.25626       72.67909       71.91855
C         66.70759       72.50645       70.53780
C         65.70822       71.63413       69.79146
O         65.36309       70.57247       70.29331
C         68.12381       71.83877       70.46623
C         69.16585       72.57596       71.34728
C         68.60017       71.79147       68.99491
C         70.54751       71.90613       71.34167
H         66.54524       71.97002       72.60966
H         66.80416       73.50073       70.04770
H         68.04206       70.79573       70.84742
H         68.81519       72.57027       72.40041
H         69.27254       73.63259       71.02085
H         67.88196       71.24047       68.36392
H         68.71511       72.82048       68.58917
H         69.55993       71.25188       68.88313
H         71.21994       72.42836       72.05305
H         70.46534       70.84108       71.64854
H         71.02685       71.96164       70.34323
N         65.27944       71.97688       68.54183
C         64.40673       71.13227       67.72468
C         65.20047       70.54405       66.56692
O         66.37256       70.86080       66.43735
C         63.21934       71.95960       67.19431
C         62.38894       72.54814       68.30150
O         61.20979       72.25135       68.40661
O         62.93018       73.42935       69.16441
H         65.64767       72.83986       68.11560
H         64.02021       70.27588       68.31978
H         62.57263       71.31000       66.56559
H         63.59685       72.78962       66.55724
N         64.65056       69.64444       65.69895
C         65.41918       69.06968       64.59688
C         65.83963       70.14822       63.59750
O         67.02576       70.19737       63.30469
C         64.68421       67.89926       63.89750
C         65.55947       67.24490       62.84779
C         65.21460       67.31872       61.48640
C         66.73024       66.55677       63.21903
C         66.02784       66.72155       60.51747
C         67.53622       65.95543       62.24688
C         67.18639       66.03933       60.89723
H         63.67634       69.33778       65.84547
H         66.33623       68.61114       65.03315
H         63.74676       68.23599       63.43024
H         64.40125       67.12858       64.64668
H         64.32288       67.84653       61.17256
H         67.01701       66.47851       64.25999
H         65.76003       66.78806       59.47091
H         68.43280       65.42391       62.53979
H         67.81283       65.57550       60.14588
N         64.97045       71.06256       63.03966
C         65.37117       72.06876       62.05362
C         66.41071       73.07681       62.52560
O         66.81610       73.91076       61.72705
C         64.07125       72.81983       61.73966
C         63.02469       71.75849       61.98290
C         63.54169       71.12831       63.26899
H         65.73983       71.51757       61.15943
H         63.89858       73.60080       62.51787
H         64.04930       73.30825       60.74205
H         61.98280       72.13712       62.04362
H         63.09411       71.00519       61.16455
H         63.35580       71.79724       64.13769
H         63.03113       70.16905       63.42525
N         66.88369       73.06615       63.80164
C         67.88878       73.97751       64.31486
C         69.19976       73.22437       64.38463
O         70.16852       73.65566       63.77602
C         67.47491       74.47836       65.71190
C         66.09897       75.16738       65.72474
C         65.68274       75.54421       67.11882
O         64.46707       76.06915       67.33617
O         66.41857       75.34466       68.07207
H         66.53810       72.36360       64.46101
H         68.01534       74.85605       63.64245
H         68.24724       75.17959       66.09790
H         67.42037       73.60720       66.40167
H         65.33137       74.46495       65.33470
H         66.11262       76.07464       65.08394
N         69.28599       72.05109       65.07166
C         70.48624       71.25024       65.10362
H         71.31157       71.81991       65.57634
H         70.30077       70.32505       65.69146
H         70.76831       70.95675       64.06993
H         68.46364       71.68910       65.56727
Ca        63.93946       76.42050       69.49175
O         64.92674       77.34460       72.13070
H         64.18125       77.86967       71.74743
H         65.45810       78.00018       72.64614
O         67.07012       76.81307       70.44315
H         67.74809       77.52685       70.34658
H         67.58744       75.96960       70.42423

Ca 1.0



