%chk=holoCaM.loop4.water3.frame312.chk
%nprocshared=20
%mem=10GB
%nosave
#b3lyp/svp scf=(tight,noincore,xqc) Test 
#IOP(5/87=12) Density=Current Pop=(MK,readradii) iop(6/33=2) iop(6/42=6)

holoCaM.loop4.water3.frame312 

   -3  1 
C         12.05174       48.38555       83.09540
C         11.23468       49.57639       83.50894
O         10.02950       49.54747       83.32014
H         13.12480       48.51869       83.34631
H         11.68070       47.48519       83.63230
H         11.95426       48.21754       82.00319
N         11.81645       50.63859       84.13578
C         11.05801       51.75993       84.68122
C         11.70091       53.09407       84.30328
O         12.88916       53.24211       84.55475
C         11.06428       51.60516       86.21622
C         10.13802       52.55443       86.91843
O         10.09581       52.56644       88.26340
O          9.38880       53.27930       86.28663
H         12.82844       50.59697       84.33258
H          9.99930       51.72133       84.34175
H         12.10022       51.74150       86.59648
H         10.73195       50.57949       86.48710
N         10.97814       54.13059       83.76598
C         11.57763       55.44407       83.48431
C         11.00768       56.57709       84.34778
O         11.53643       57.67676       84.24211
C         11.45866       55.83895       81.97405
C         10.00345       56.18694       81.55199
C         12.06391       54.75009       81.07255
C          9.90769       56.86056       80.18104
H          9.97611       53.99299       83.58205
H         12.66276       55.40647       83.72118
H         12.06482       56.76399       81.84414
H          9.57205       56.91768       82.26401
H          9.37064       55.28330       81.56492
H         13.11006       54.53848       81.37622
H         11.47293       53.81213       81.14128
H         12.08611       55.07391       80.01246
H         10.24935       56.19293       79.36668
H          8.84975       57.13364       79.97896
H         10.51182       57.79389       80.17320
N          9.91127       56.43278       85.15436
C          9.22951       57.59266       85.74250
C          8.56190       57.35132       87.10182
O          7.99901       58.30302       87.62581
C          8.23160       58.19418       84.71700
C          7.18674       57.24912       84.18460
O          7.18354       55.94988       84.52055
O          6.35049       57.66096       83.39708
H          9.43434       55.52522       85.16319
H          9.97521       58.39321       85.94388
H          8.80210       58.57185       83.84246
H          7.72163       59.06699       85.17887
N          8.60242       56.15941       87.76555
C          8.02360       55.97457       89.09478
C          6.50126       56.04188       89.16117
O          5.97429       55.94974       90.26073
H          9.12052       55.37413       87.36413
H          8.45650       56.73779       89.77677
H          8.31912       54.97402       89.48008
N          5.72581       56.17049       88.04634
C          4.25632       56.22895       88.05652
C          3.56639       54.94811       88.56988
O          2.34520       54.94651       88.64629
C          3.73929       56.54185       86.62628
C          3.95656       55.36067       85.72228
O          5.18465       54.82154       85.64221
O          3.01036       54.81513       85.17787
H          6.20753       56.27268       87.14682
H          3.96456       57.07910       88.71184
H          4.26964       57.43272       86.22580
H          2.65289       56.77922       86.65970
N          4.26173       53.82942       88.93146
C          3.63970       52.62197       89.45774
C          3.04124       51.68516       88.41616
O          2.58342       50.62789       88.82576
H          5.28635       53.84033       88.91203
H          2.89373       52.88861       90.23889
H          4.43187       52.02886       89.96421
N          3.01512       51.96301       87.07685
C          2.49628       51.02787       86.06925
C          3.56912       50.77311       84.97603
O          4.82514       50.58717       85.55122
C          1.22379       51.61979       85.43191
C          0.11249       51.84542       86.46734
C         -1.13941       52.36599       85.81080
N         -1.14522       53.56185       85.17651
O         -2.16347       51.70087       85.85620
H          3.36918       52.86909       86.75197
H          2.24059       50.05186       86.53715
H          0.82469       50.92582       84.66550
H          1.47941       52.57912       84.93280
H          0.43927       52.57107       87.24265
H         -0.11056       50.87586       86.96567
H         -0.29594       54.14356       85.13528
H         -2.00536       53.91072       84.72832
N          3.27080       49.64513       84.08001
C          4.24743       49.51115       82.97230
C          3.71095       50.11187       81.66934
O          2.72589       49.61682       81.13957
C          4.61108       48.00806       82.81594
C          5.55649       47.74938       81.63452
C          5.27725       47.48190       84.09987
H          2.29003       49.63756       83.72463
H          5.19653       50.03470       83.22302
H          3.67739       47.43016       82.63779
H          5.78799       46.66577       81.55745
H          5.07492       48.04341       80.68354
H          6.50666       48.30850       81.75906
H          6.22676       48.02620       84.29606
H          4.61060       47.60716       84.97798
H          5.50814       46.40014       83.99941
N          4.33940       51.17886       81.09128
C          3.94948       51.76461       79.80352
C          4.24897       50.79823       78.65467
O          4.84745       49.76116       78.87983
C          4.73711       53.09289       79.61495
C          4.44992       53.87777       78.36043
N          3.20959       54.35209       78.10303
O          5.35715       54.10332       77.57350
H          5.12956       51.60119       81.59977
H          2.86240       51.99487       79.83418
H          5.82042       52.86229       79.64497
H          4.50497       53.76275       80.46249
H          2.43305       54.18072       78.75701
H          3.02643       54.88946       77.24237
N          3.86547       51.09093       77.38137
C          4.22103       50.29423       76.20726
C          5.73181       50.26587       76.00453
O          6.30110       49.18272       75.99742
C          3.49529       50.88249       74.97441
C          3.93546       50.32184       73.64278
C          3.88585       48.94561       73.36590
C          4.39519       51.20488       72.64951
C          4.29462       48.46568       72.11508
C          4.79204       50.72573       71.40193
C          4.74406       49.35306       71.12918
O          5.12320       48.87929       69.92535
H          3.28988       51.93025       77.23662
H          3.86373       49.24867       76.34556
H          3.65287       51.98352       74.96015
H          2.40451       50.70985       75.10322
H          3.53716       48.24556       74.11423
H          4.43727       52.27125       72.83477
H          4.25839       47.40346       71.90940
H          5.13357       51.42487       70.64886
H          5.42868       49.46501       69.21732
N          6.44497       51.41547       75.82264
C          7.89487       51.44069       75.59527
C          8.71920       50.93746       76.78135
O          9.93288       50.86645       76.64063
C          8.35971       52.87182       75.22261
C          7.81066       53.35672       73.86555
C          8.38389       52.62237       72.67535
O          8.01549       52.92535       71.55237
O          9.32274       51.66538       72.82019
H          5.92333       52.30321       75.81007
H          8.12378       50.76234       74.74800
H          9.46949       52.92896       75.16800
H          8.03080       53.56553       76.02764
H          8.07619       54.42870       73.74455
H          6.70411       53.27513       73.85252
N          8.15310       50.52460       77.94949
C          8.90999       49.91595       79.03348
C          8.82276       48.40806       78.90170
O          9.85648       47.75940       78.81712
C          8.35402       50.37178       80.39162
C          8.52217       51.87801       80.62895
C          7.93082       52.30135       81.94847
O          7.91387       53.48012       82.25196
O          7.40485       51.40065       82.79979
H          7.13431       50.55052       78.05707
H          9.98626       50.19960       78.98651
H          8.88587       49.82265       81.19123
H          7.27347       50.11795       80.44937
H          8.01336       52.43373       79.81656
H          9.59980       52.14843       80.61028
N          7.61705       47.78066       78.84932
C          7.48755       46.34962       78.69769
H          6.41198       46.07380       78.64888
H          7.97881       46.02196       77.75696
H          7.94974       45.83334       79.56450
H          6.75700       48.33554       78.89955
Ca         5.51834       52.67836       85.16103
O          7.89875       50.42153       85.68439
H          7.57127       49.86253       86.43243
H          7.89540       49.81407       84.90424
O          5.16407       54.31649       82.79635
H          5.03731       55.22140       82.41676
H          4.25040       53.93958       82.86098
O          6.79902       52.14052       87.76926
H          6.39735       51.55101       88.45494
H          7.44027       52.70352       88.26933

Ca 1.0



