%chk=holoCaM-CaMKII.loop1.water2.frame317.chk
%nprocshared=20
%mem=10GB
%nosave
#b3lyp/svp scf=(tight,noincore,xqc) Test 
#IOP(5/87=12) Density=Current Pop=(MK,readradii) iop(6/33=2) iop(6/42=6)

holoCaM-CaMKII.loop1.water2.frame317 

   0  1 
C         48.04845       22.04674       57.90920
C         47.55985       20.98412       56.96790
O         47.15641       21.32628       55.87495
H         48.89939       22.58982       57.44711
H         47.22578       22.76272       58.11499
H         48.38811       21.61561       58.87449
N         47.59894       19.67245       57.32741
C         47.16033       18.52990       56.51485
C         45.62274       18.48712       56.39084
O         45.00518       17.62700       57.00440
C         47.72314       17.26276       57.21934
C         47.40212       15.96765       56.54768
O         47.80194       15.73480       55.42236
O         46.71511       15.02918       57.22102
H         48.01323       19.47099       58.25163
H         47.62882       18.56585       55.50686
H         47.33111       17.21904       58.25911
H         48.83193       17.34466       57.27465
N         44.92616       19.40246       55.64784
C         43.46870       19.50289       55.69076
C         42.71632       18.44410       54.88611
O         41.50086       18.42267       55.02838
C         42.98526       20.92038       55.29373
C         43.43874       21.99805       56.30136
C         42.71466       23.33106       56.03995
C         42.97064       24.39363       57.12432
N         44.35241       24.87207       57.13281
H         45.43235       20.11764       55.11987
H         43.15387       19.36602       56.74992
H         41.87357       20.91178       55.31585
H         43.30678       21.18128       54.26093
H         44.54049       22.12529       56.26168
H         43.15751       21.66193       57.32341
H         41.62053       23.13084       56.05303
H         42.98087       23.73147       55.03809
H         42.70361       23.98518       58.12512
H         42.29905       25.25840       56.92515
H         45.01279       24.09932       57.37086
H         44.59370       25.27949       56.20042
H         44.44280       25.62085       57.85780
N         43.31372       17.52914       54.06077
C         42.54218       16.46265       53.40158
C         42.90107       15.07811       53.94498
O         42.29905       14.10518       53.51256
C         42.61671       16.55487       51.86089
C         43.94934       16.24107       51.25664
O         44.99038       15.89631       52.02769
O         44.07947       16.26440       50.04345
H         44.33544       17.55873       53.92861
H         41.46141       16.58334       53.62898
H         42.30708       17.57535       51.54615
H         41.88770       15.83235       51.43158
N         43.80215       14.92312       54.95783
C         44.03394       13.66745       55.64869
C         44.78674       12.63503       54.84645
O         44.31260       11.51391       54.73565
H         44.28093       15.74527       55.34729
H         43.06809       13.26478       56.02374
H         44.65624       13.87521       56.54075
N         46.01198       12.92606       54.32725
C         46.90451       11.93299       53.73212
C         48.25789       11.88775       54.46244
O         49.15003       11.18925       54.00159
C         47.04084       12.16462       52.21373
C         47.51660       13.53014       51.82727
O         46.84889       14.22047       51.07677
O         48.69553       13.98659       52.26607
H         46.35115       13.89698       54.39283
H         46.47812       10.90928       53.82223
H         46.04643       11.99275       51.74515
H         47.73962       11.40869       51.79460
N         48.45269       12.53238       55.65288
C         49.66556       12.42795       56.45405
C         50.83273       13.27921       55.99083
O         51.84144       13.25861       56.68451
H         47.66617       13.02530       56.08977
H         49.96534       11.36089       56.54603
H         49.42724       12.78882       57.47860
N         50.79586       14.05500       54.86862
C         51.90637       14.91401       54.45128
C         51.44804       16.35489       54.24897
O         50.26032       16.63715       54.34807
C         52.57551       14.35417       53.17097
C         53.19709       12.96789       53.40994
O         51.67473       14.32496       52.09299
H         49.95550       14.03527       54.28176
H         52.68815       14.94100       55.24279
H         53.41714       15.01872       52.88261
H         51.12031       13.50711       52.17657
H         52.42080       12.22571       53.69402
H         53.69808       12.61740       52.48309
H         53.95254       13.02221       54.22223
N         52.36408       17.33110       53.98855
C         52.04018       18.74384       53.80294
C         52.56703       19.19278       52.44421
O         53.72899       18.94188       52.14790
C         52.66665       19.59836       54.94890
C         52.21845       19.06602       56.33769
C         52.26794       21.08236       54.78261
C         52.86397       19.79831       57.51794
H         53.36205       17.06785       53.95378
H         50.93943       18.90845       53.84991
H         53.77490       19.51639       54.88796
H         52.51809       18.00055       56.42987
H         51.11178       19.12447       56.43411
H         52.74951       21.72442       55.54562
H         52.60197       21.47421       53.80368
H         51.16472       21.20248       54.85693
H         52.54493       20.85859       57.56727
H         52.55077       19.31532       58.46731
H         53.97123       19.74771       57.44385
N         51.79030       19.93086       51.60159
C         52.24833       20.45672       50.31772
C         52.47468       21.95006       50.43494
O         52.23742       22.51242       51.49099
C         51.22299       20.16672       49.18084
C         50.89174       18.68172       49.03213
O         50.04645       20.92179       49.33918
H         50.86334       20.21415       51.92925
H         53.22062       19.99337       50.04140
H         51.67071       20.48226       48.21545
H         49.51315       20.51948       50.06795
H         50.18702       18.53802       48.18461
H         51.81242       18.09359       48.84005
H         50.40463       18.31711       49.95554
N         52.93956       22.66570       49.38090
C         53.10426       24.11617       49.41390
C         51.75744       24.80289       49.62104
O         51.66247       25.68144       50.46562
C         53.78625       24.62385       48.12117
C         55.21435       24.06659       47.99660
O         53.02830       24.26655       46.99400
H         53.16888       22.15605       48.51448
H         53.77925       24.40059       50.25399
H         53.85492       25.73469       48.19243
H         53.37137       24.80667       46.23511
H         55.81798       24.35697       48.88335
H         55.21641       22.95978       47.91605
H         55.70591       24.47983       47.09165
N         50.66505       24.41533       48.90105
C         49.33691       25.02247       49.02475
C         48.84296       24.97788       50.46150
O         48.49757       26.01500       51.01019
C         48.31019       24.29226       48.12377
C         48.64979       24.37231       46.62569
C         47.58787       23.65135       45.78587
C         47.94551       23.69361       44.29423
N         46.92725       23.01698       43.49175
H         50.78856       23.62659       48.25150
H         49.38639       26.08586       48.70038
H         47.31173       24.75964       48.27721
H         48.24129       23.22304       48.42459
H         49.63123       23.89638       46.42495
H         48.70453       25.43882       46.31696
H         46.60023       24.13712       45.94475
H         47.51927       22.58889       46.10917
H         48.92755       23.19381       44.13579
H         48.03183       24.75141       43.96048
H         46.00504       23.49757       43.60349
H         47.20691       23.05150       42.48482
H         46.84212       22.01653       43.78496
N         48.80871       23.79674       51.13249
C         48.36884       23.64011       52.51755
C         49.14727       24.55926       53.44449
O         48.52730       25.31829       54.17704
C         48.52928       22.16257       52.93600
C         47.49049       21.27163       52.21988
C         47.70946       19.80688       52.46058
O         48.74052       19.27362       52.09639
O         46.75444       19.03833       53.00242
H         49.15047       22.96594       50.62935
H         47.29232       23.90894       52.61272
H         48.38922       22.06045       54.02367
H         49.56662       21.84360       52.71107
H         47.53544       21.42710       51.12328
H         46.47243       21.55660       52.56431
N         50.50459       24.57637       53.44266
C         51.27201       25.46537       54.28618
H         52.35604       25.34323       54.07527
H         50.99116       26.52094       54.08108
H         51.08476       25.22966       55.35444
H         51.00948       23.96240       52.80019
Ca        47.32395       16.85969       53.00652
O         49.66786       15.99297       50.66282
H         50.26516       15.82916       49.89063
H         50.24637       16.41572       51.34649
O         47.38810       17.48961       49.60821
H         47.70974       17.04457       48.78444
H         46.45475       17.17881       49.70590

Ca 1.0



