%chk=holoCaM-CaMKII.loop1.water2.frame53.chk
%nprocshared=20
%mem=10GB
%nosave
#b3lyp/svp scf=(tight,noincore,xqc) Test 
#IOP(5/87=12) Density=Current Pop=(MK,readradii) iop(6/33=2) iop(6/42=6)

holoCaM-CaMKII.loop1.water2.frame53 

   0  1 
C          7.43277       57.05912       96.60309
C          6.42413       56.50664       97.56419
O          6.76719       55.63737       98.34291
H          8.41715       56.56121       96.73342
H          7.08116       56.90620       95.56224
H          7.55960       58.14711       96.79101
N          5.16399       57.01722       97.58231
C          4.10518       56.64956       98.52522
C          3.49497       55.26579       98.22139
O          2.36200       55.19830       97.76231
C          3.03008       57.76024       98.45028
C          1.96657       57.63832       99.49109
O          1.05383       58.44221       99.49844
O          2.01597       56.67387      100.42558
H          4.97935       57.79177       96.92402
H          4.50834       56.68119       99.56144
H          2.55991       57.75518       97.44227
H          3.51297       58.75069       98.60428
N          4.18733       54.11385       98.44566
C          3.68964       52.79120       98.06736
C          2.54823       52.25772       98.93072
O          2.02471       51.21508       98.56108
C          4.86482       51.78148       98.04323
C          5.87310       52.06115       96.90072
C          5.30283       51.86399       95.47488
C          4.83460       50.41915       95.21429
N          4.32521       50.26179       93.85329
H          5.12774       54.17316       98.84628
H          3.26928       52.85639       97.04528
H          4.49862       50.74243       97.93790
H          5.39022       51.82225       99.02324
H          6.73884       51.37456       97.01853
H          6.26001       53.09927       96.99067
H          6.10603       52.10900       94.74660
H          4.47032       52.56937       95.27940
H          4.02188       50.13847       95.91543
H          5.69080       49.72584       95.36978
H          4.04484       49.26414       93.71033
H          3.48456       50.86888       93.71517
H          5.06346       50.51036       93.15636
N          2.09596       52.87492      100.06334
C          0.96320       52.35616      100.84545
C         -0.20644       53.34803      100.94625
O         -1.20341       53.00715      101.56716
C          1.43776       51.80937      102.21226
C          2.09317       52.79049      103.13455
O          2.25590       53.95036      102.80699
O          2.52066       52.37465      104.34199
H          2.57222       53.72793      100.38721
H          0.52698       51.46616      100.34171
H          2.16763       50.99132      102.02437
H          0.56639       51.36519      102.74093
N         -0.20334       54.53995      100.28118
C         -1.36302       55.41912      100.16565
C         -1.80342       56.10046      101.44839
O         -2.95447       55.96001      101.83395
H          0.61855       54.79569       99.72195
H         -2.20693       54.84455       99.72612
H         -1.11013       56.23106       99.44867
N         -0.94623       56.91374      102.11905
C         -1.28909       57.74380      103.27753
C         -0.94011       59.22008      103.03278
O         -1.02442       60.00536      103.96748
C         -0.59861       57.19426      104.54871
C          0.80718       56.72944      104.31097
O          1.72127       57.52554      103.73283
O          1.09474       55.56970      104.55170
H          0.02070       56.96657      101.77539
H         -2.37971       57.72521      103.49655
H         -1.17614       56.30579      104.88993
H         -0.64433       57.93952      105.37106
N         -0.60923       59.68750      101.79387
C         -0.31664       61.08381      101.49724
C          1.01335       61.59392      102.02412
O          1.30690       62.75243      101.76212
H         -0.65238       59.04812      100.99436
H         -1.14538       61.72371      101.87109
H         -0.27406       61.20281      100.39231
N          1.87313       60.82198      102.75147
C          3.16479       61.30347      103.24073
C          4.31157       60.43292      102.74629
O          4.08467       59.38537      102.15518
C          3.15601       61.36282      104.79110
C          2.23038       62.47408      105.28969
O          2.73075       60.14226      105.34092
H          1.60958       59.85769      102.98181
H          3.37391       62.32542      102.85408
H          4.16914       61.61296      105.17997
H          3.40623       59.46161      105.09249
H          2.24662       62.50830      106.39998
H          2.58141       63.45770      104.90872
H          1.18582       62.30725      104.95348
N          5.59384       60.85816      102.93843
C          6.78906       60.12980      102.52502
C          7.68945       59.96548      103.74729
O          7.96204       60.94814      104.42435
C          7.51931       60.89045      101.37503
C          6.55716       61.09635      100.17059
C          8.77513       60.10472      100.93360
C          7.15740       61.91438       99.02343
H          5.73577       61.78053      103.38018
H          6.52160       59.12905      102.11701
H          7.83517       61.88925      101.74983
H          5.65872       61.65170      100.51341
H          6.22366       60.11127       99.77466
H          9.34435       60.64830      100.15429
H          9.47424       59.96543      101.78119
H          8.49274       59.10437      100.53797
H          8.01484       61.39448       98.55143
H          6.38838       62.06217       98.23573
H          7.48319       62.91066       99.39026
N          8.22930       58.75389      104.05281
C          9.10785       58.49753      105.18988
C         10.52419       58.28240      104.68988
O         10.75604       58.38289      103.49689
C          8.61969       57.25248      105.98557
C          7.18302       57.40357      106.50928
O          8.77312       56.07458      105.22778
H          8.07045       57.98240      103.40329
H          9.12447       59.37204      105.87646
H          9.25541       57.12967      106.88656
H          7.95268       55.92331      104.69791
H          7.10866       58.28651      107.17702
H          6.46488       57.52280      105.67088
H          6.90174       56.49604      107.08635
N         11.53518       57.98505      105.54711
C         12.89767       57.71648      105.09469
C         12.93725       56.50774      104.16523
O         13.46116       56.62753      103.06687
C         13.85706       57.51279      106.29456
C         14.02026       58.80074      107.10794
O         13.39831       56.49105      107.14490
H         11.32360       57.93775      106.55453
H         13.27952       58.59739      104.52885
H         14.87380       57.26976      105.90098
H         13.91038       55.66941      106.92700
H         13.05507       59.13209      107.54379
H         14.73996       58.63239      107.93642
H         14.41682       59.61288      106.46120
N         12.39970       55.31272      104.54282
C         12.47301       54.09709      103.73239
C         11.84636       54.29419      102.36009
O         12.50422       54.01325      101.36786
C         11.81496       52.92289      104.49010
C         12.04454       51.57525      103.78643
C         11.50445       50.41144      104.62729
C         11.80192       49.06329      103.95600
N         11.31286       47.95185      104.77138
H         11.93107       55.26221      105.46006
H         13.54739       53.83460      103.60163
H         10.72680       53.10816      104.62906
H         12.28923       52.86195      105.49510
H         13.13832       51.42933      103.64502
H         11.55240       51.57643      102.78960
H         10.40723       50.52784      104.76453
H         11.99315       50.42620      105.62663
H         12.90111       48.95416      103.81707
H         11.31674       49.02837      102.95545
H         11.54029       47.05033      104.29287
H         11.77717       47.96143      105.70881
H         10.27619       48.02118      104.89001
N         10.59351       54.81428      102.23214
C          9.94531       55.07082      100.94301
C         10.83680       55.92398      100.05308
O         11.16151       55.49454       98.95448
C          8.58900       55.77956      101.16099
C          7.54010       54.86009      101.81680
C          6.28973       55.61095      102.18526
O          6.34652       56.53268      102.97480
O          5.08075       55.25549      101.73159
H         10.10268       55.08039      103.09851
H          9.76229       54.10841      100.41418
H          8.18532       56.13206      100.19513
H          8.76981       56.67755      101.78210
H          7.94422       54.42547      102.75340
H          7.29564       54.02427      101.12615
N         11.29340       57.13142      100.47355
C         12.17215       57.95650       99.67555
H         13.10769       57.40260       99.44635
H         11.66710       58.24730       98.73109
H         12.43771       58.87713      100.23863
H         11.02457       57.46712      101.40050
Ca         3.47587       56.45086      102.79936
O          3.71121       57.05412      106.08047
H          4.19293       56.59835      106.81462
H          2.91960       57.45702      106.51754
O          5.15220       54.55922      104.96617
H          4.75221       53.91331      104.33199
H          4.79514       54.29423      105.85018

Ca 1.0



