%chk=holoCaM.loop3.water2.frame150.chk
%nprocshared=20
%mem=10GB
%nosave
#b3lyp/svp scf=(tight,noincore,xqc) Test 
#IOP(5/87=12) Density=Current Pop=(MK,readradii) iop(6/33=2) iop(6/42=6)

holoCaM.loop3.water2.frame150 

   0  1 
C          6.67533       75.50345        0.03474
C          7.31446       76.12618        1.23909
O          8.51205       76.37039        1.22479
H          5.86683       76.16545       -0.34242
H          7.42040       75.35519       -0.77594
H          6.24273       74.51996        0.31147
N          6.55425       76.44942        2.31988
C          7.11128       77.09388        3.50089
C          7.89016       76.07466        4.31286
O          7.29661       75.09360        4.74177
C          5.97307       77.73888        4.31996
C          6.45424       78.67029        5.39310
O          7.64257       78.80395        5.63313
O          5.55758       79.42479        6.05029
H          5.53650       76.28412        2.26740
H          7.76432       77.92949        3.15986
H          5.30008       76.96681        4.75135
H          5.36807       78.36239        3.63067
N          9.23043       76.21592        4.53172
C         10.01879       75.17548        5.19271
C          9.94352       75.25065        6.71033
O         10.43282       74.33603        7.35816
C         11.47801       75.17012        4.68873
C         11.59891       75.13092        3.14797
C         10.85715       73.95418        2.49083
C         10.98843       74.00863        0.96336
N         10.22374       72.93251        0.33388
H          9.71119       77.03492        4.13072
H          9.58985       74.18789        4.91701
H         12.00010       74.28568        5.11695
H         11.99844       76.08425        5.04905
H         12.67746       75.08210        2.88433
H         11.19762       76.07663        2.72743
H          9.77459       74.01248        2.72846
H         11.26051       72.99151        2.87322
H         12.05870       73.92668        0.67421
H         10.60371       74.98419        0.59372
H         10.31640       73.00983       -0.70460
H         10.59002       72.00297        0.64195
H          9.21130       73.01491        0.58609
N          9.30621       76.27691        7.34427
C          9.05339       76.30851        8.78114
C          7.55730       76.16218        9.06949
O          7.20117       76.01818       10.23092
C          9.66663       77.57838        9.40656
C          9.13982       78.83824        8.78337
O          7.82811       79.11090        8.83817
O          9.89525       79.61311        8.21818
H          8.93109       77.05045        6.78432
H          9.53397       75.43530        9.27269
H         10.76973       77.54491        9.27065
H          9.45729       77.60158       10.49793
N          6.62880       76.14463        8.06619
C          5.22069       75.85355        8.25535
C          4.52525       76.80002        9.19829
O          3.91548       76.33141       10.14867
H          6.91520       76.29688        7.09200
H          5.11092       74.80945        8.62016
H          4.71246       75.91771        7.26698
N          4.54030       78.14288        8.97621
C          3.78360       79.09889        9.77943
C          2.75291       79.83484        8.92497
O          2.08905       80.72429        9.43754
C          4.74956       80.03772       10.53701
C          5.38240       81.14082        9.71924
N          5.34851       82.41997       10.16283
O          5.94913       80.88768        8.67028
H          5.09605       78.49699        8.18981
H          3.22106       78.55916       10.57202
H          5.54487       79.40713       10.99158
H          4.19475       80.50865       11.37757
H          4.90194       82.65916       11.06058
H          5.79848       83.17348        9.62287
N          2.52349       79.47336        7.62487
C          1.52219       80.08880        6.77470
C          1.96640       81.38408        6.13148
O          1.19727       81.89194        5.32724
H          3.01051       78.66092        7.22186
H          0.56228       80.20326        7.32342
H          1.33060       79.39588        5.92518
N          3.17656       81.96947        6.38793
C          3.63715       83.16083        5.67968
C          5.01228       82.86050        5.02077
O          5.92570       82.70769        6.07603
C          3.74127       84.38401        6.62941
C          2.48056       84.65289        7.41259
C          2.21351       83.91552        8.57840
C          1.58636       85.66143        7.02071
C          1.07232       84.17899        9.33928
C          0.43764       85.91774        7.77787
C          0.17932       85.17863        8.94253
O         -0.91662       85.42302        9.68894
H          3.80294       81.55966        7.09368
H          2.91055       83.43238        4.88270
H          3.99019       85.27042        6.00584
H          4.56742       84.27842        7.36544
H          2.90191       83.14968        8.90839
H          1.77456       86.24490        6.12843
H          0.88661       83.60970       10.24178
H         -0.24733       86.69424        7.46213
H         -1.55713       86.10943        9.45424
N          5.41551       83.96545        4.12893
C          6.63988       83.75902        3.31942
C          7.15972       85.13149        2.90939
O          6.50354       85.83028        2.14867
C          6.42447       82.81204        2.07008
C          6.41418       81.31744        2.50476
C          7.51300       83.02405        0.98868
C          6.21270       80.32032        1.35677
H          4.62684       84.22088        3.48921
H          7.43529       83.32569        3.94725
H          5.46013       83.07593        1.58298
H          5.60291       81.13916        3.23476
H          7.38351       81.07210        2.99094
H          7.31981       82.41739        0.08330
H          7.50878       84.06437        0.61014
H          8.51496       82.78007        1.38467
H          5.24972       80.51009        0.84117
H          7.04638       80.35106        0.62733
H          6.20596       79.28863        1.75260
N          8.36094       85.56852        3.39025
C          8.98464       86.83093        3.00262
C          9.54975       86.75851        1.58850
O          9.47976       85.71463        0.96097
C         10.12981       87.16468        3.98400
O         11.16783       86.22203        3.89575
H          8.84642       84.97937        4.08229
H          8.23216       87.64596        3.08367
H          9.73212       87.22650        5.02383
H         10.55623       88.16547        3.76654
H         11.04194       85.56983        4.63194
N         10.17753       87.83782        1.04397
C         10.87737       87.80434       -0.23789
C         12.06191       86.85180       -0.18609
O         12.20126       86.02677       -1.07759
C         11.39359       89.20357       -0.59204
H         10.18497       88.71803        1.58140
H         10.17623       87.50347       -1.04896
H         12.10300       89.57485        0.17816
H         11.91314       89.17949       -1.57472
H         10.54192       89.91225       -0.66670
N         12.95379       86.91825        0.84639
C         14.15740       86.09397        0.95579
C         13.85228       84.61909        0.79496
O         14.44803       83.98424       -0.06449
C         14.84166       86.34247        2.30717
H         12.75956       87.59477        1.60125
H         14.86981       86.39079        0.15417
H         15.77206       85.74073        2.38618
H         15.10949       87.41587        2.40706
H         14.16729       86.06861        3.14759
N         12.90297       84.01812        1.56051
C         12.51249       82.61960        1.39890
C         12.05611       82.37216       -0.02819
O         12.63331       81.52630       -0.69759
C         11.37557       82.27561        2.37740
C         11.83636       82.27661        3.84132
C         10.63958       82.16012        4.73077
O         10.38782       83.05137        5.52588
O          9.78217       81.13191        4.60284
H         12.40830       84.60058        2.25179
H         13.37931       81.95436        1.61319
H         10.96357       81.26710        2.14804
H         10.56761       83.02619        2.24504
H         12.36005       83.22513        4.08712
H         12.53630       81.43299        4.01887
N         11.04140       83.09697       -0.56926
C         10.60632       82.92372       -1.93654
H          9.78300       83.63480       -2.16219
H         11.45000       83.12985       -2.62964
H         10.23913       81.88780       -2.09115
H         10.57406       83.81005        0.00125
Ca         7.82127       81.57700        5.58499
O          7.75199       84.69408        7.15079
H          7.02006       85.10834        6.62865
H          8.55468       84.80726        6.58333
O          8.89294       82.43115        8.92207
H          9.01627       82.21628        9.88074
H          9.65213       83.02730        8.70116

Ca 1.0



