%chk=holoCaM-CaMKII.loop2.water1.frame52.chk
%nprocshared=20
%mem=10GB
%nosave
#b3lyp/svp scf=(tight,noincore,xqc) Test 
#IOP(5/87=12) Density=Current Pop=(MK,readradii) iop(6/33=2) iop(6/42=6)

holoCaM-CaMKII.loop2.water1.frame52 

   -2  1 
C          8.09958       69.45817       95.66845
C          6.85048       69.70312       96.46674
O          5.81674       69.97308       95.87527
H          8.95931       69.20516       96.32482
H          7.93232       68.60746       94.97399
H          8.35721       70.36312       95.08085
N          6.86928       69.60522       97.82535
C          5.67873       69.75103       98.66298
C          5.06613       71.15020       98.56525
O          5.69520       72.05003       98.02639
C          6.06918       69.39849      100.12067
C          4.94281       69.43095      101.10890
O          5.01210       70.25352      102.17244
O          3.97165       68.70598      100.96510
H          7.76598       69.36390       98.27633
H          4.93447       69.01341       98.31008
H          6.86063       70.10250      100.45911
H          6.49434       68.37120      100.13372
N          3.82760       71.39389       99.09348
C          3.19102       72.70816       99.13506
C          1.93820       72.65123      100.01269
O          0.86057       73.02595       99.57189
C          2.86115       73.20064       97.71325
H          3.32110       70.60771       99.52028
H          3.88991       73.42125       99.62321
H          2.16100       72.49392       97.21600
H          2.38756       74.20467       97.75504
H          3.77140       73.28654       97.08787
N          2.03358       72.16027      101.28481
C          0.91602       72.00935      102.22266
C          1.40613       71.41849      103.54897
O          1.15018       72.03331      104.57480
C         -0.28873       71.24002      101.62240
C          0.06538       70.03749      100.81091
O         -0.20497       70.01940       99.61940
O          0.65317       68.96750      101.35489
H          2.96607       71.85242      101.59725
H          0.50469       73.01494      102.46500
H         -0.82416       71.93072      100.93524
H         -1.02036       70.97762      102.41632
N          2.15765       70.27687      103.60977
C          2.72685       69.74623      104.84726
C          2.29930       68.32199      105.16413
O          2.77532       67.78734      106.15561
H          2.40374       69.79314      102.73829
H          2.45741       70.37823      105.72075
H          3.83325       69.76592      104.75081
N          1.38181       67.65611      104.40796
C          0.85830       66.32950      104.74088
C          1.85396       65.16866      104.56512
O          1.46305       64.04476      104.85020
C         -0.43538       66.06674      103.92827
C         -0.22006       65.96906      102.44230
N         -1.26428       65.76705      101.60979
O          0.90104       66.07397      101.98172
H          0.95480       68.15589      103.62074
H          0.53976       66.35268      105.80674
H         -1.14791       66.89874      104.12308
H         -0.90747       65.12410      104.27650
H         -2.22245       65.68331      101.97688
H         -1.11093       65.69524      100.59393
N          3.14102       65.33938      104.13403
C          4.09890       64.23755      104.05584
C          3.95716       63.32188      102.84440
O          4.71004       62.36020      102.77845
H          3.49510       66.28684      103.94829
H          4.04153       63.64314      104.99527
H          5.12527       64.65868      104.00461
N          3.05983       63.55080      101.84182
C          2.90184       62.69108      100.66503
C          3.13021       63.46084       99.36297
O          3.36570       64.66092       99.39296
C          1.47702       62.07372      100.67335
C          1.26606       61.16893      101.88712
O          0.49723       63.08156      100.68006
H          2.44589       64.36377      101.91376
H          3.64136       61.86062      100.67996
H          1.32942       61.41490       99.78828
H          0.38725       63.38919       99.74245
H          0.25062       60.72053      101.84615
H          2.01287       60.34603      101.88213
H          1.36186       61.74175      102.83290
N          3.01471       62.81273       98.16567
C          3.06970       63.46404       96.86080
C          1.64287       63.60646       96.36850
O          0.91049       62.62521       96.35538
C          3.89319       62.62469       95.83352
C          5.35088       62.40764       96.30454
C          3.86896       63.30506       94.44160
C          6.11389       61.40800       95.42518
H          2.77216       61.81092       98.17277
H          3.53414       64.47362       96.93747
H          3.40627       61.62770       95.74607
H          5.34512       61.98570       97.33125
H          5.89469       63.37759       96.32984
H          2.83135       63.42304       94.07372
H          4.34371       64.30940       94.48575
H          4.38281       62.69891       93.67179
H          6.22557       61.76531       94.38224
H          7.13418       61.25351       95.83219
H          5.58622       60.42964       95.41714
N          1.20459       64.80078       95.89002
C         -0.13777       65.02671       95.36651
C         -0.04842       65.20445       93.87157
O          1.05180       65.14809       93.34141
C         -0.73907       66.29363       95.99322
C         -0.62769       66.31153       97.48198
O         -1.60386       66.53172       98.18028
O          0.59736       66.22498       98.02969
H          1.87095       65.58415       95.84703
H         -0.79291       64.15430       95.58100
H         -1.79536       66.43057       95.67547
H         -0.15613       67.17199       95.63833
N         -1.15403       65.39223       93.10262
C         -1.03812       65.49975       91.65811
C         -0.26404       66.74918       91.23571
O          0.67851       66.58271       90.47636
C         -2.39750       65.38958       90.93487
C         -2.17552       65.23687       89.44626
C         -2.61959       66.21985       88.54742
C         -1.49957       64.10590       88.94628
C         -2.38033       66.07756       87.17606
C         -1.26316       63.96904       87.57813
C         -1.70111       64.95497       86.69285
H         -2.08690       65.39332       93.54430
H         -0.46363       64.60596       91.32937
H         -3.03692       66.26444       91.14466
H         -2.94410       64.49109       91.29472
H         -3.13841       67.09952       88.90690
H         -1.15083       63.32776       89.61380
H         -2.71737       66.84017       86.48702
H         -0.73739       63.09847       87.20696
H         -1.51328       64.84759       85.63281
N         -0.56792       68.02454       91.65307
C          0.16300       69.20808       91.20033
C          1.65269       69.13865       91.49123
O          2.43590       69.76972       90.79592
C         -0.46722       70.35590       92.00379
C         -1.87884       69.85467       92.21687
C         -1.62598       68.39465       92.57162
H         -0.02733       69.32071       90.11056
H         -0.00664       70.40585       93.01854
H         -0.37492       71.35594       91.52789
H         -2.47015       70.41796       92.96991
H         -2.41102       69.88957       91.23844
H         -1.24088       68.30145       93.61233
H         -2.56609       67.83085       92.46943
N          2.09594       68.43292       92.56459
C          3.49348       68.31146       92.95529
C          4.22552       67.40331       91.98289
O          5.31313       67.74614       91.54227
C          3.58041       67.77283       94.39858
C          2.84002       68.72524       95.37075
C          2.85595       68.28380       96.80020
O          2.22410       69.04061       97.71534
O          3.42145       67.25957       97.14865
H          1.39220       67.95674       93.14746
H          3.97649       69.31449       92.98291
H          4.64879       67.70227       94.70190
H          3.13833       66.75842       94.44364
H          1.77199       68.81870       95.09192
H          3.29193       69.73805       95.31274
N          3.65322       66.23779       91.57130
C          4.27062       65.33971       90.62202
H          5.19866       64.91170       91.05250
H          3.57032       64.50774       90.38609
H          4.49956       65.87795       89.67799
H          2.71978       65.99215       91.91358
Ca         1.06635       67.46509       99.78301
O          4.77920       66.07786      101.43621
H          5.21155       66.14345      100.54842
H          5.37573       66.58256      102.04323

Ca 1.0



