%chk=holoCaM-CaMKII.loop1.water1.frame35.chk
%nprocshared=20
%mem=10GB
%nosave
#b3lyp/svp scf=(tight,noincore,xqc) Test 
#IOP(5/87=12) Density=Current Pop=(MK,readradii) iop(6/33=2) iop(6/42=6)

holoCaM-CaMKII.loop1.water1.frame35 

   0  1 
C         27.92232       59.60623       22.02608
C         28.24782       58.33687       22.75193
O         28.40014       57.30317       22.11658
H         26.95706       60.01116       22.39349
H         28.72587       60.35087       22.21279
H         27.85102       59.42804       20.93220
N         28.40277       58.35404       24.10346
C         28.80673       57.17928       24.86273
C         27.72307       56.10186       24.81454
O         26.65459       56.29601       25.37783
C         29.11455       57.59950       26.31370
C         29.74592       56.53486       27.15236
O         30.02032       56.80975       28.43261
O         30.04952       55.44856       26.69278
H         28.29033       59.25689       24.59217
H         29.75405       56.80773       24.40885
H         28.17701       57.94260       26.80359
H         29.82871       58.45195       26.30210
N         27.92740       54.95489       24.10667
C         26.92327       53.90194       23.95455
C         26.79645       53.01062       25.19679
O         25.90556       52.17236       25.20841
C         27.26853       52.96379       22.76715
C         27.50892       53.67412       21.42121
C         27.76783       52.63654       20.31371
C         28.30375       53.24587       19.00708
N         27.40379       54.23795       18.42205
H         28.79817       54.89027       23.57744
H         25.94879       54.38929       23.72556
H         26.43139       52.24133       22.63864
H         28.18916       52.38999       23.01775
H         28.39947       54.32812       21.50456
H         26.63057       54.29911       21.15207
H         26.83317       52.06586       20.11921
H         28.54369       51.91910       20.66124
H         28.46519       52.42084       18.27783
H         29.28809       53.71670       19.20197
H         26.46753       53.81306       18.23540
H         27.30961       55.06370       19.05542
H         27.81548       54.56877       17.51911
N         27.68430       53.07085       26.23523
C         27.68117       52.14340       27.37078
C         27.48437       52.84699       28.70444
O         27.45173       52.15067       29.71147
C         29.04420       51.41449       27.44203
C         29.32000       50.53302       26.26379
O         28.64904       49.53374       26.06764
O         30.30560       50.84281       25.41065
H         28.43734       53.76486       26.20131
H         26.86767       51.39296       27.27047
H         29.11211       50.76832       28.34302
H         29.84089       52.18245       27.53270
N         27.39176       54.20398       28.82507
C         27.31696       54.85962       30.12419
C         28.59726       54.73634       30.94882
O         28.60655       55.22487       32.06950
H         27.37682       54.80216       27.98730
H         26.45790       54.43847       30.69081
H         27.12898       55.94390       29.97247
N         29.71481       54.11196       30.47011
C         30.96383       53.95080       31.21501
C         31.80271       55.23347       31.32407
O         32.94042       55.13588       31.76393
C         31.78946       52.77758       30.61412
C         32.21412       52.92025       29.17589
O         31.86254       53.98996       28.44271
O         32.86631       52.03021       28.65459
H         29.67406       53.68227       29.54097
H         30.73169       53.60401       32.24653
H         31.17684       51.85176       30.68621
H         32.69862       52.62216       31.23494
N         31.31592       56.47101       31.00654
C         32.10336       57.69043       31.12984
C         33.16638       57.85863       30.05686
O         33.93664       58.80189       30.16914
H         30.33235       56.58308       30.74741
H         32.56963       57.71181       32.13948
H         31.43280       58.57350       31.05503
N         33.26797       57.01660       28.98665
C         34.31366       57.11570       27.97173
C         33.73449       57.30611       26.57845
O         32.90322       56.51416       26.15459
C         35.18890       55.84031       27.97584
C         35.91094       55.66306       29.31576
O         34.40122       54.71282       27.69963
H         32.59298       56.25072       28.89038
H         34.99830       57.96587       28.18636
H         35.95714       55.95407       27.17499
H         35.01480       53.93694       27.63585
H         36.54383       56.55000       29.52890
H         35.18104       55.52496       30.13979
H         36.56776       54.76861       29.27113
N         34.24661       58.27328       25.76529
C         33.95376       58.37600       24.34030
C         35.21187       57.93053       23.61552
O         36.26867       58.49913       23.85875
C         33.55607       59.82787       23.94194
C         32.29584       60.28302       24.72052
C         33.32206       59.91516       22.41531
C         31.93781       61.75513       24.49162
H         34.98375       58.89169       26.13928
H         33.11472       57.70209       24.05430
H         34.39861       60.50496       24.20826
H         32.48031       60.16681       25.80959
H         31.42663       59.64541       24.44610
H         33.10404       60.95219       22.09334
H         34.22865       59.60724       21.85415
H         32.47962       59.25746       22.10963
H         32.79016       62.40632       24.78177
H         31.66637       61.95628       23.43614
H         31.06054       62.02366       25.11648
N         35.16698       56.91912       22.70396
C         36.33990       56.42079       21.99803
C         36.28203       56.83877       20.54150
O         35.30481       57.43834       20.11177
C         36.46509       54.87195       22.12723
C         36.46740       54.37861       23.58216
O         35.47309       54.21066       21.38442
H         34.25744       56.51266       22.47210
H         37.25836       56.87466       22.42907
H         37.43739       54.56167       21.69094
H         34.61910       54.30472       21.86905
H         35.51046       54.62641       24.08923
H         36.58959       53.27347       23.59810
H         37.30462       54.83785       24.14581
N         37.32953       56.56023       19.72275
C         37.36165       56.90660       18.30527
C         36.24806       56.19913       17.55530
O         35.63241       56.80508       16.69086
C         38.73132       56.55653       17.67941
C         39.86437       57.36936       18.32407
O         38.98975       55.18195       17.81246
H         38.13962       56.07329       20.13313
H         37.22563       58.00578       18.18713
H         38.68149       56.83043       16.59902
H         39.68056       54.95293       17.13753
H         39.97649       57.13504       19.40283
H         40.82633       57.13935       17.82159
H         39.66337       58.45681       18.21813
N         35.93388       54.90902       17.85251
C         34.85101       54.16790       17.21349
C         33.51407       54.83806       17.50052
O         32.77879       55.12656       16.56673
C         34.84643       52.69569       17.69605
C         36.16775       51.98776       17.32515
C         36.18590       50.51465       17.75079
C         37.55792       49.85053       17.51446
N         37.94739       49.83270       16.10259
H         36.48029       54.44498       18.59226
H         35.01457       54.14176       16.11265
H         34.00595       52.15861       17.20275
H         34.69175       52.65072       18.79702
H         37.02089       52.49062       17.82354
H         36.30900       52.05778       16.22629
H         35.39339       49.95520       17.20808
H         35.97328       50.45430       18.84058
H         37.50690       48.80374       17.88683
H         38.33732       50.38210       18.10551
H         38.10098       50.80262       15.74631
H         38.84980       49.31280       16.00793
H         37.21707       49.34995       15.53125
N         33.15314       55.14143       18.78047
C         31.88197       55.77732       19.14662
C         31.72272       57.18158       18.57644
O         30.63385       57.72931       18.68773
C         31.75099       55.85479       20.68499
C         31.73644       54.45351       21.30419
C         31.81180       54.45563       22.79599
O         32.78647       54.87377       23.39463
O         30.83621       53.85662       23.46859
H         33.82078       54.89637       19.52364
H         31.05701       55.15292       18.74232
H         30.81467       56.37697       20.98326
H         32.60459       56.44628       21.06544
H         32.58222       53.83599       20.95456
H         30.80705       53.93789       20.98509
N         32.74756       57.83830       17.96873
C         32.59564       59.15712       17.39876
H         32.28821       59.87879       18.18395
H         33.56234       59.49062       16.96375
H         31.83439       59.13192       16.59039
H         33.67250       57.40552       17.91311
Ca        31.10565       52.92568       25.45083
O         34.24808       52.17880       25.53361
H         35.11163       52.23384       26.01405
H         34.46278       51.68757       24.70165

Ca 1.0



