%chk=holoCaM-CaMKII.loop2.water2.frame246.chk
%nprocshared=20
%mem=10GB
%nosave
#b3lyp/svp scf=(tight,noincore,xqc) Test 
#IOP(5/87=12) Density=Current Pop=(MK,readradii) iop(6/33=2) iop(6/42=6)

holoCaM-CaMKII.loop2.water2.frame246 

   -2  1 
C         95.32265      119.47520       46.00204
C         96.08910      119.85455       44.76483
O         97.29234      120.05011       44.84650
H         94.24552      119.31378       45.77990
H         95.73225      118.52961       46.41661
H         95.40751      120.27640       46.76416
N         95.44900      119.95622       43.56894
C         96.12700      120.23729       42.30842
C         96.78293      121.61012       42.29999
O         96.09129      122.59895       42.50125
C         95.10998      120.14185       41.15520
C         95.76912      120.32964       39.82551
O         95.40982      121.23203       39.08668
O         96.76359      119.50379       39.44772
H         94.43251      119.77675       43.54948
H         96.89541      119.45027       42.14447
H         94.30858      120.90183       41.29347
H         94.63773      119.13758       41.16160
N         98.11549      121.73582       42.02040
C         98.80470      123.01911       41.92661
C         99.42161      123.27882       40.54942
O         99.86089      124.40164       40.34072
C         99.89938      123.08240       42.99654
H         98.66186      120.88088       41.86614
H         98.08553      123.84471       42.11797
H        100.41332      124.06732       42.97633
H         99.45663      122.93875       44.00478
H        100.65392      122.28357       42.82371
N         99.54168      122.31315       39.58375
C        100.17356      122.55968       38.27999
C         99.31969      122.13093       37.08387
O         99.74534      122.36292       35.96015
C        101.57068      121.90129       38.22964
C        101.60590      120.40082       38.37750
O        102.68209      119.82735       38.34168
O        100.48488      119.67800       38.55636
H         99.23937      121.35649       39.80093
H        100.35075      123.65016       38.15107
H        102.18879      122.33915       39.04313
H        102.05295      122.16664       37.26279
N         98.10974      121.52096       37.23080
C         97.24874      121.14815       36.11637
C         97.77047      120.03551       35.22122
O         97.08220      119.73210       34.25646
H         97.74376      121.36581       38.17261
H         97.05573      122.05322       35.50006
H         96.27242      120.80089       36.51791
N         98.94982      119.38108       35.44121
C         99.45552      118.36226       34.52057
C         98.56093      117.10946       34.42030
O         98.75489      116.35472       33.47767
C        100.93599      118.00330       34.83284
C        101.15339      117.48664       36.25580
N        102.51956      117.02240       36.45458
O        100.29579      116.43488       36.47338
H         99.53045      119.64998       36.24316
H         99.46351      118.82372       33.50750
H        101.56863      118.90800       34.70896
H        101.28263      117.23848       34.10357
H        103.15810      117.84660       36.46446
H        102.57540      116.57053       37.39673
N         97.57920      116.81649       35.33117
C         96.63520      115.70323       35.18366
C         96.70300      114.64032       36.27946
O         95.82872      113.78623       36.30346
H         97.46141      117.42724       36.15093
H         96.75745      115.18364       34.20896
H         95.61505      116.14306       35.19324
N         97.72742      114.59127       37.17587
C         97.89515      113.58927       38.22694
C         98.03168      114.27952       39.63030
O         99.25567      114.94154       39.80724
C         99.11786      112.68826       37.88622
C         98.91514      111.92200       36.57535
O        100.28310      113.46736       37.76648
H         98.46477      115.26648       37.05863
H         96.99252      112.93972       38.26851
H         99.24224      111.91303       38.67687
H        100.89585      113.20708       38.50194
H         98.01691      111.27236       36.64152
H         98.79633      112.61967       35.71926
H         99.79955      111.27900       36.37683
N         97.80390      113.33430       40.74409
C         98.36050      113.76531       42.04964
C         99.87363      113.52579       42.10259
O        100.32014      112.41879       41.83775
C         97.61526      113.04690       43.20994
C         96.10711      113.41804       43.14555
C         98.22523      113.45166       44.57072
C         95.24289      112.76770       44.22485
H         98.11663      112.36097       40.52647
H         98.16538      114.85172       42.19442
H         97.72790      111.94600       43.09249
H         95.69614      113.10169       42.16268
H         95.98819      114.51935       43.22964
H         98.13752      114.54779       44.73139
H         97.73382      112.91954       45.40841
H         99.29667      113.16944       44.62308
H         95.53073      113.11640       45.23709
H         94.18362      113.06231       44.06626
H         95.32046      111.66238       44.17030
N        100.70806      114.53787       42.48514
C        102.16437      114.42704       42.55632
C        102.62399      114.36083       44.00398
O        101.79507      114.37512       44.90036
C        102.80990      115.64406       41.86036
C        102.40508      115.77447       40.42595
O        101.79337      116.89693       40.00730
O        102.65661      114.88563       39.62887
H        100.28860      115.42960       42.77696
H        102.50959      113.49116       42.06533
H        103.91586      115.56414       41.88650
H        102.51770      116.57181       42.40221
N        103.95400      114.23802       44.29852
C        104.45080      114.11123       45.66292
C        104.19027      115.35450       46.51075
O        103.67132      115.17514       47.60501
C        105.95028      113.74237       45.70569
C        106.31467      113.26448       47.09519
C        107.18463      113.99880       47.91718
C        105.75721      112.06665       47.58457
C        107.47725      113.54646       49.21023
C        106.05538      111.61792       48.87139
C        106.91235      112.35869       49.68616
H        104.63041      114.17543       43.52456
H        103.90724      113.24935       46.10715
H        106.56524      114.60956       45.39516
H        106.16872      112.91163       45.00039
H        107.62181      114.92491       47.56662
H        105.08908      111.47735       46.96830
H        108.13872      114.11827       49.84725
H        105.61763      110.69699       49.23564
H        107.13692      112.01072       50.68600
N        104.50074      116.63985       46.12962
C        104.22949      117.80633       46.96003
C        102.74112      118.15491       47.02751
O        102.40967      119.12817       47.68592
C        105.05733      118.91260       46.29810
C        104.94430      118.54834       44.83667
C        105.12851      117.03114       44.87736
H        104.60846      117.66745       47.99762
H        104.77066      119.95199       46.56754
H        106.12576      118.76512       46.57960
H        103.90026      118.77410       44.52413
H        105.63809      119.07934       44.15087
H        104.64090      116.61123       43.97943
H        106.20291      116.75907       44.91269
N        101.79297      117.39031       46.40702
C        100.35728      117.63310       46.49262
C         99.66956      116.53398       47.29994
O         98.47873      116.65989       47.55577
C         99.76215      117.65788       45.07003
C        100.44539      118.68380       44.15036
C         99.98989      118.57606       42.72005
O        100.51390      119.27858       41.87137
O         99.04316      117.69269       42.34954
H        102.08183      116.58148       45.85364
H        100.16072      118.59812       47.00822
H         98.66916      117.85306       45.11303
H         99.91070      116.64726       44.63693
H        101.53798      118.49703       44.14416
H        100.25957      119.71249       44.52789
N        100.33852      115.42576       47.73054
C         99.71795      114.38027       48.50967
H         98.86221      113.94503       47.95346
H        100.45843      113.57352       48.70716
H         99.37636      114.78938       49.48289
H        101.32469      115.28986       47.49719
Ca        99.41642      116.77870       38.52674
O         96.17859      116.79116       41.68924
H         95.20310      116.85576       41.84309
H         96.57172      116.83418       42.59636
O         95.96061      117.04420       38.24981
H         95.51235      117.79174       37.77951
H         95.46875      116.95582       39.10309

Ca 1.0



