%chk=holoCaM.loop3.water2.frame474.chk
%nprocshared=20
%mem=10GB
%nosave
#b3lyp/svp scf=(tight,noincore,xqc) Test 
#IOP(5/87=12) Density=Current Pop=(MK,readradii) iop(6/33=2) iop(6/42=6)

holoCaM.loop3.water2.frame474 

   0  1 
C         29.82972       54.00315       76.36826
C         30.39698       53.83655       77.74161
O         31.53225       53.39304       77.84987
H         28.80923       54.43676       76.40221
H         30.48842       54.67730       75.78222
H         29.78355       53.01222       75.86956
N         29.65677       54.14681       78.84543
C         30.16889       53.99111       80.19527
C         29.44997       52.83679       80.85980
O         28.23381       52.85537       80.99134
C         30.05086       55.30519       80.96617
C         30.80279       55.26609       82.25950
O         31.45052       54.16011       82.67729
O         30.87423       56.28144       82.92502
H         28.68598       54.47588       78.72740
H         31.25382       53.75614       80.14543
H         28.98614       55.56786       81.14664
H         30.50994       56.11226       80.35666
N         30.17395       51.74602       81.21666
C         29.60233       50.48016       81.64076
C         28.94094       50.58095       83.00246
O         27.79063       50.17952       83.10911
C         30.66611       49.35919       81.57341
C         31.24971       49.25148       80.13589
C         32.19824       48.06979       79.91992
C         31.45339       46.72998       79.86350
N         32.38200       45.63376       79.59642
H         31.19006       51.79362       81.08516
H         28.82938       50.17393       80.89863
H         30.16327       48.40866       81.84603
H         31.48901       49.54519       82.29851
H         31.83420       50.16376       79.90608
H         30.43280       49.19076       79.38340
H         32.98404       48.06235       80.70523
H         32.69435       48.21436       78.93381
H         30.69843       46.77219       79.04530
H         30.92395       46.53450       80.81869
H         33.07022       45.55308       80.37946
H         31.84296       44.74135       79.52089
H         32.88865       45.79926       78.69600
N         29.57386       51.14862       84.07363
C         28.92206       51.29274       85.37881
C         28.37656       52.69585       85.59824
O         27.75437       52.92017       86.62894
C         29.86089       50.84586       86.52563
C         31.05420       51.73448       86.77465
O         31.23670       52.74861       86.12511
O         31.91930       51.41947       87.75676
H         30.50931       51.55933       83.93355
H         28.03556       50.62346       85.42244
H         30.21842       49.81632       86.31264
H         29.27833       50.81798       87.47212
N         28.53389       53.68388       84.67109
C         27.97126       55.00909       84.82889
C         28.53828       55.71817       86.03053
O         27.76760       56.10134       86.89849
H         29.04384       53.49822       83.79707
H         26.86416       54.93008       84.91346
H         28.19708       55.61621       83.92554
N         29.87800       55.96137       86.12616
C         30.46485       56.73499       87.21654
C         30.96954       58.09460       86.72962
O         31.43540       58.86730       87.55707
C         31.52280       55.90464       88.00241
C         32.87820       55.54699       87.34034
N         33.99709       56.00851       88.15770
O         33.01981       56.09575       86.08098
H         30.49037       55.62688       85.37276
H         29.67463       56.97087       87.96035
H         31.05435       54.94668       88.31732
H         31.73531       56.45684       88.94270
H         34.02173       55.46796       89.04918
H         34.89196       55.83560       87.64389
N         30.89090       58.46885       85.41443
C         31.31867       59.75771       84.89087
C         32.58787       59.65602       84.06079
O         33.03182       60.66875       83.54696
H         30.51355       57.81427       84.72055
H         31.53262       60.47147       85.71467
H         30.49125       60.18290       84.28225
N         33.27639       58.48097       83.97996
C         34.61111       58.33866       83.41867
C         34.65738       57.12595       82.51478
O         34.29771       56.04845       82.95943
C         35.60959       58.13753       84.58064
C         35.62063       59.34578       85.48538
C         34.75210       59.41903       86.58763
C         36.47470       60.42545       85.21184
C         34.73341       60.55762       87.39817
C         36.45865       61.56165       86.02633
C         35.58401       61.63290       87.12071
O         35.54955       62.72766       87.90699
H         32.89669       57.65876       84.44422
H         34.92493       59.25002       82.86543
H         36.63304       57.97322       84.17637
H         35.35508       57.22950       85.17152
H         34.08071       58.60079       86.81065
H         37.14800       60.38914       84.36455
H         34.05239       60.60636       88.23875
H         37.12128       62.38778       85.80172
H         36.11488       63.49621       87.74382
N         35.16547       57.21241       81.25341
C         35.32182       56.04419       80.39502
C         36.79603       55.69403       80.36881
O         37.59267       56.44743       79.82900
C         34.71935       56.31803       78.98510
C         33.18749       56.51947       79.11186
C         35.04180       55.17850       77.99905
C         32.49430       56.90259       77.80320
H         35.53370       58.11621       80.92403
H         34.78608       55.16902       80.82477
H         35.18371       57.24715       78.58636
H         32.98101       57.33192       79.84096
H         32.72849       55.58487       79.49829
H         34.68988       55.42127       76.97712
H         36.13638       55.02752       77.91085
H         34.56561       54.23532       78.32642
H         31.41054       57.05246       77.99300
H         32.92194       57.84652       77.40543
H         32.58578       56.10303       77.04121
N         37.22643       54.56096       80.99744
C         38.62287       54.14224       81.03388
C         39.09060       53.70452       79.65663
O         38.29696       53.68351       78.73026
C         38.79663       52.99039       82.04901
O         38.03428       51.87917       81.66812
H         36.53292       53.99379       81.50277
H         39.24279       54.99335       81.39053
H         38.46066       53.35384       83.04758
H         39.86391       52.69191       82.12407
H         37.97667       51.28702       82.46255
N         40.37817       53.31794       79.45287
C         40.85577       52.78356       78.18102
C         40.13919       51.48332       77.85217
O         39.63584       51.33945       76.74754
C         42.36481       52.53553       78.24786
H         41.03904       53.38504       80.24251
H         40.68837       53.52788       77.36950
H         42.61566       51.80105       79.04188
H         42.72941       52.15296       77.27033
H         42.88958       53.49119       78.46333
N         40.02496       50.50934       78.80114
C         39.34104       49.23196       78.60169
C         37.93077       49.42514       78.07936
O         37.57585       48.82875       77.07240
C         39.28133       48.46851       79.93389
H         40.42176       50.70602       79.73354
H         39.91265       48.61528       77.87392
H         38.71929       49.05117       80.69724
H         38.77696       47.48842       79.79753
H         40.30664       48.28767       80.31959
N         37.08467       50.27591       78.71446
C         35.71299       50.54585       78.29542
C         35.67751       51.01509       76.84918
O         34.98473       50.39801       76.05194
C         35.08782       51.58913       79.24656
C         34.89446       51.00911       80.66144
C         34.44377       52.05662       81.63356
O         33.43537       52.70360       81.41943
O         35.15296       52.28531       82.75502
H         37.46055       50.78291       79.52622
H         35.10601       49.61460       78.36349
H         34.08968       51.90133       78.86650
H         35.75079       52.48100       79.28662
H         35.83335       50.56720       81.04965
H         34.13957       50.19980       80.61610
N         36.43387       52.06613       76.43093
C         36.49237       52.52034       75.05576
H         37.53245       52.41152       74.68012
H         35.82107       51.94180       74.38709
H         36.20484       53.59074       75.00676
H         37.02716       52.55159       77.10949
Ca        32.62178       54.49769       84.53993
O         35.64900       53.93569       85.52639
H         35.83505       53.72519       86.47599
H         36.31871       54.62445       85.28729
O         34.17344       51.22949       85.39678
H         35.03805       50.75389       85.47935
H         33.49605       50.50900       85.35180

Ca 1.0



