%chk=holoCaM-CaMKII.loop4.water2.frame189.chk
%nprocshared=20
%mem=10GB
%nosave
#b3lyp/svp scf=(tight,noincore,xqc) Test 
#IOP(5/87=12) Density=Current Pop=(MK,readradii) iop(6/33=2) iop(6/42=6)

holoCaM-CaMKII.loop4.water2.frame189 

   -3  1 
C          5.69370       49.43068       32.46451
C          6.06371       48.16665       33.18528
O          6.53277       47.22720       32.56288
H          4.61370       49.64320       32.61832
H          6.28583       50.27722       32.87307
H          5.89007       49.34480       31.37568
N          5.86335       48.08646       34.52562
C          6.17783       46.91970       35.34722
C          5.38526       45.69644       34.89050
O          4.18032       45.81076       34.71185
C          5.82269       47.25799       36.80678
C          6.19719       46.20594       37.80096
O          6.83420       45.21510       37.48500
O          5.82216       46.37647       39.07503
H          5.46243       48.91934       34.98760
H          7.27191       46.71841       35.29504
H          4.72732       47.43421       36.87560
H          6.34664       48.19043       37.11318
N          5.99888       44.48439       34.71986
C          5.31496       43.28984       34.21670
C          5.14126       42.20637       35.29327
O          4.21642       41.41804       35.15072
C          6.07798       42.73518       32.96489
C          6.22231       43.84105       31.88346
C          5.39250       41.48132       32.38257
C          7.01459       43.41558       30.64328
H          7.00181       44.41079       34.93750
H          4.28525       43.56641       33.89667
H          7.10031       42.43701       33.28916
H          6.77219       44.69688       32.32421
H          5.21852       44.19473       31.56253
H          5.34887       40.66432       33.12913
H          4.36503       41.72067       32.03674
H          5.97420       41.06055       31.53922
H          6.48648       42.62548       30.07301
H          7.13242       44.28704       29.96499
H          8.02199       43.05080       30.93011
N          5.97351       42.07870       36.37128
C          5.86279       40.99337       37.35509
C          5.51669       41.48541       38.75899
O          5.45459       40.66608       39.66546
C          7.13346       40.11064       37.34379
C          8.40296       40.73068       37.86582
O          8.46162       42.00269       38.29681
O          9.42934       40.07029       37.84810
H          6.72783       42.75599       36.48895
H          5.03833       40.30586       37.06626
H          7.31020       39.77054       36.29849
H          6.94018       39.20585       37.95969
N          5.19824       42.78759       39.00204
C          4.73402       43.27703       40.29033
C          5.81242       43.34166       41.34759
O          5.63572       42.77447       42.41597
H          5.18416       43.45645       38.22182
H          3.87051       42.66506       40.63229
H          4.36901       44.31681       40.15509
N          6.93906       44.07312       41.12638
C          7.97281       44.32629       42.12951
C          8.23151       45.82490       42.31844
O          9.17732       46.17620       43.01074
C          9.25871       43.54898       41.77419
C          9.90153       43.83970       40.44480
O         11.00624       43.15332       40.10138
O          9.43948       44.65553       39.66567
H          7.06326       44.48422       40.19176
H          7.66547       43.93286       43.12371
H          9.00998       42.46661       41.78991
H         10.01372       43.73109       42.57018
N          7.40755       46.76902       41.77747
C          7.60051       48.20056       41.93137
C          8.76546       48.77081       41.14687
O          8.93997       49.97826       41.22385
H          6.55461       46.47339       41.29344
H          7.70027       48.45165       43.00905
H          6.69329       48.71984       41.54787
N          9.58031       48.00970       40.35240
C         10.64360       48.59422       39.54082
C         10.42796       48.32885       38.06572
O          9.64122       47.47344       37.68633
C         12.03529       48.05245       39.93207
C         12.44075       48.41104       41.36401
C         13.90206       48.10505       41.59756
N         14.38690       46.84603       41.48595
O         14.66354       49.01833       41.88052
H          9.43457       46.99769       40.29030
H         10.65599       49.69807       39.66349
H         12.78616       48.50798       39.24882
H         12.07113       46.95000       39.79665
H         11.80666       47.86214       42.09278
H         12.28722       49.50211       41.51344
H         13.77021       46.05723       41.24609
H         15.39072       46.66137       41.63543
N         11.15034       49.06372       37.17583
C         11.16273       48.86142       35.73845
C         12.60673       48.56455       35.36188
O         13.49711       49.32796       35.70721
C         10.56877       50.09694       35.01200
C         10.64725       49.94468       33.48319
C          9.08993       50.27644       35.40858
H         11.75538       49.81344       37.54488
H         10.52660       47.99789       35.45350
H         11.13567       51.00819       35.30200
H         11.70057       49.84793       33.14846
H         10.07717       49.05342       33.14771
H         10.21572       50.83918       32.98502
H          8.98589       50.42890       36.50274
H          8.65167       51.15913       34.89666
H          8.49720       49.37849       35.12265
N         12.89726       47.44319       34.65545
C         14.23696       46.97955       34.32571
C         14.52749       47.32836       32.88011
O         13.68863       47.92728       32.23132
C         14.25080       45.44631       34.59721
C         15.53408       44.71295       34.30485
N         16.67798       45.01707       34.95771
O         15.53467       43.81542       33.47514
H         12.11656       46.89190       34.28853
H         15.00045       47.49060       34.95181
H         13.44483       44.97909       33.98851
H         14.00685       45.27071       35.66387
H         16.69834       45.76290       35.66680
H         17.54674       44.50244       34.74843
N         15.71693       47.01207       32.30853
C         16.00441       47.23380       30.89814
C         15.02781       46.43682       30.03604
O         14.40502       47.01207       29.15421
C         17.46470       46.82252       30.62216
C         17.89353       47.06945       29.19972
C         17.88390       48.36821       28.66157
C         18.32967       45.99897       28.40416
C         18.30125       48.58853       27.34619
C         18.74901       46.22183       27.09112
C         18.73642       47.51846       26.55734
O         19.14275       47.74696       25.29279
H         16.44533       46.58324       32.89287
H         15.90481       48.31867       30.67212
H         17.59399       45.74999       30.88748
H         18.13518       47.41252       31.28560
H         17.55937       49.21137       29.25850
H         18.35033       44.99164       28.80129
H         18.29061       49.59299       26.94194
H         19.08614       45.38583       26.49216
H         19.45703       47.03411       24.71859
N         14.81942       45.10820       30.27622
C         13.90791       44.25074       29.50814
C         12.44272       44.70513       29.54108
O         11.65311       44.15381       28.78814
C         14.02810       42.80008       30.05448
C         13.20538       41.73388       29.30847
C         13.41599       40.37512       29.91161
O         14.52683       39.86989       29.92413
O         12.37321       39.70348       30.43816
H         15.36119       44.68109       31.04208
H         14.24815       44.27237       28.44934
H         13.72119       42.79784       31.12516
H         15.09984       42.50631       30.00001
H         13.49584       41.71117       28.23662
H         12.12285       41.95245       29.38613
N         11.99830       45.70327       30.35256
C         10.60051       46.11312       30.42687
C         10.45167       47.44199       29.71971
O          9.68142       47.52124       28.77306
C         10.13435       46.14829       31.89869
C         10.40238       44.79671       32.57866
C          9.94881       44.72902       34.00206
O          9.38519       43.59970       34.43890
O         10.24627       45.58985       34.80935
H         12.65986       46.18870       30.96250
H          9.94546       45.38200       29.90112
H          9.05205       46.39525       31.94026
H         10.69635       46.93016       32.44814
H         11.49502       44.60822       32.58141
H          9.91842       43.97207       32.01456
N         11.21680       48.50923       30.07701
C         11.22844       49.76909       29.36548
H         12.24958       49.94082       28.96025
H         10.51436       49.78307       28.51647
H         10.97838       50.59200       30.06487
H         11.86135       48.41937       30.86673
Ca         9.04564       43.35692       36.63060
O         11.87229       42.77622       36.17224
H         11.97197       41.89473       36.61154
H         12.30128       42.66944       35.28681
O         12.23630       45.10035       37.89233
H         12.96052       45.74401       37.69362
H         12.52810       44.66386       38.73068

Ca 1.0



