%chk=holoCaM-CaMKII.loop4.water1.frame335.chk
%nprocshared=20
%mem=10GB
%nosave
#b3lyp/svp scf=(tight,noincore,xqc) Test 
#IOP(5/87=12) Density=Current Pop=(MK,readradii) iop(6/33=2) iop(6/42=6)

holoCaM-CaMKII.loop4.water1.frame335 

   -3  1 
C         30.82504       50.29796       49.75469
C         30.16867       48.98733       50.06340
O         30.85588       47.99653       50.23896
H         31.92841       50.18760       49.70483
H         30.45879       50.66378       48.77113
H         30.56518       51.04016       50.53766
N         28.81537       48.92030       50.13593
C         28.05923       47.69254       50.36370
C         28.30822       46.68670       49.23465
O         28.05676       47.00814       48.08239
C         26.56732       48.08098       50.49309
C         25.63893       46.91789       50.56722
O         24.72056       46.81487       49.77209
O         25.79981       45.99394       51.51598
H         28.29657       49.80443       50.01003
H         28.37127       47.23836       51.33254
H         26.25928       48.70780       49.62944
H         26.44970       48.68466       51.42177
N         28.79238       45.43671       49.51884
C         29.08491       44.39450       48.53108
C         28.10837       43.21671       48.69084
O         28.16159       42.30799       47.87623
C         30.57847       43.90637       48.69540
C         31.56781       45.09925       48.71689
C         31.00483       42.90270       47.59628
C         33.00582       44.71757       49.09307
H         28.96324       45.19970       50.49887
H         28.94627       44.80865       47.50848
H         30.65698       43.40149       49.68486
H         31.24591       45.79558       49.50490
H         31.55961       45.63143       47.74105
H         32.04347       42.55151       47.74398
H         30.41345       41.97196       47.61177
H         30.92686       43.37077       46.59173
H         33.62390       45.63706       49.16640
H         33.02079       44.20914       50.08157
H         33.48203       44.06376       48.33697
N         27.16929       43.16182       49.68592
C         26.27890       42.01544       49.87556
C         24.83205       42.35699       49.56723
O         23.99463       41.46975       49.66428
C         26.35797       41.53135       51.33992
C         27.75066       41.17966       51.77281
O         28.31482       41.82821       52.80982
O         28.36781       40.29198       51.20784
H         27.06920       43.94431       50.34658
H         26.56444       41.17957       49.20028
H         25.71058       40.63763       51.47648
H         25.97315       42.33582       52.00376
N         24.44567       43.61689       49.22470
C         23.05567       43.99449       49.05071
C         22.27953       43.75029       50.32529
O         21.23171       43.12301       50.28256
H         25.14672       44.36334       49.12754
H         22.60314       43.45057       48.19429
H         23.01407       45.08173       48.82418
N         22.76930       44.21425       51.50692
C         22.09229       44.09933       52.79369
C         21.82024       45.47704       53.38380
O         21.32797       45.54577       54.50162
C         22.86103       43.15568       53.76171
C         24.30318       43.47016       54.07000
O         24.94098       42.71325       54.78413
O         24.92481       44.50960       53.49759
H         23.67576       44.69604       51.48357
H         21.09517       43.62319       52.66760
H         22.85429       42.14243       53.30356
H         22.29920       43.09247       54.71886
N         22.02723       46.61991       52.66125
C         21.67987       47.93586       53.15804
C         22.56924       48.39650       54.28024
O         22.12445       49.24399       55.04275
H         22.37311       46.57538       51.69306
H         20.61434       47.93820       53.47861
H         21.77361       48.68317       52.34091
N         23.86907       47.98556       54.38630
C         24.75346       48.50496       55.42615
C         26.22852       48.24650       55.16147
O         26.59231       47.50292       54.25997
C         24.29666       48.02527       56.83614
C         24.08980       46.50216       57.01350
C         25.34760       45.67272       57.13224
N         25.58592       44.94945       58.25323
O         26.14045       45.61687       56.20805
H         24.24222       47.33479       53.67922
H         24.67957       49.61567       55.38805
H         23.30040       48.47707       57.01705
H         24.95719       48.42203       57.63666
H         23.45944       46.10738       56.18962
H         23.50956       46.36929       57.95241
H         24.92297       44.95506       59.04249
H         26.43278       44.36715       58.33089
N         27.14009       48.93254       55.90311
C         28.58697       48.84205       55.76709
C         29.15933       48.49563       57.13006
O         28.88045       49.21114       58.08384
C         29.14124       50.19742       55.23304
C         30.67834       50.26891       55.27414
C         28.68102       50.42199       53.78014
H         26.78204       49.60482       56.60071
H         28.88121       48.06383       55.03500
H         28.75623       51.02476       55.86934
H         31.13020       49.48052       54.64362
H         31.02590       51.25512       54.89851
H         31.05327       50.16454       56.31334
H         29.07535       49.61664       53.12018
H         27.57445       50.42703       53.70549
H         29.05639       51.39554       53.39856
N         30.01584       47.44396       57.28283
C         30.67164       47.12305       58.54185
C         32.12500       47.54224       58.45974
O         32.53972       48.07097       57.43778
C         30.47766       45.63555       58.95821
C         31.38954       44.60972       58.30874
N         31.31825       44.31238       56.99663
O         32.19277       44.00890       59.00713
H         30.29796       46.91900       56.45523
H         30.21008       47.72451       59.35453
H         29.41258       45.34132       58.83674
H         30.69560       45.58426       60.04681
H         30.62853       44.76458       56.40069
H         31.93772       43.60103       56.58133
N         32.95621       47.36492       59.51666
C         34.34171       47.81818       59.52315
C         35.15692       47.22022       58.38116
O         35.97065       47.93663       57.81511
C         34.97460       47.50939       60.88901
C         36.38722       48.02209       60.99232
C         36.66687       49.39506       60.86769
C         37.43990       47.12327       61.21558
C         37.98268       49.85603       60.95934
C         38.75307       47.58624       61.30952
C         39.02947       48.95493       61.18059
O         40.29368       49.41298       61.26856
H         32.57719       46.91269       60.36266
H         34.33607       48.92357       59.39333
H         34.94131       46.40989       61.05366
H         34.36925       47.99132       61.68840
H         35.87052       50.10940       60.69843
H         37.24424       46.06291       61.31532
H         38.18791       50.91455       60.85871
H         39.55335       46.87872       61.48176
H         41.04313       48.82049       61.42302
N         34.98265       45.93156       57.97294
C         35.69068       45.35784       56.82861
C         35.33763       46.10964       55.54893
O         36.23971       46.60650       54.88870
C         35.36484       43.85373       56.70207
C         36.15057       43.17371       55.56998
C         35.88706       41.69518       55.55160
O         34.63730       41.23105       55.36019
O         36.80597       40.90640       55.70659
H         34.31037       45.34504       58.48671
H         36.78614       45.43537       57.01355
H         34.27727       43.70749       56.53869
H         35.64175       43.36365       57.66202
H         37.23865       43.35044       55.71966
H         35.85558       43.60015       54.58739
N         34.03727       46.25018       55.15307
C         33.63207       46.97894       53.94338
C         34.00134       48.46554       54.01140
O         33.86295       49.14553       53.00380
C         32.10083       46.86065       53.72753
C         31.61309       45.41001       53.52425
C         30.11318       45.31016       53.63501
O         29.36663       44.70132       52.71269
O         29.54082       45.74662       54.61215
H         33.31314       45.82377       55.74818
H         34.15560       46.52862       53.07100
H         31.77044       47.46928       52.85656
H         31.62747       47.27785       54.63781
H         32.02015       44.76361       54.32179
H         31.96982       45.01150       52.54964
N         34.45979       49.04602       55.15658
C         34.84362       50.43672       55.24456
H         35.69079       50.63985       54.55652
H         33.98245       51.08963       54.99440
H         35.17369       50.66740       56.28213
H         34.53390       48.49614       56.01278
Ca        27.18325       44.65831       53.32444
O         28.18455       43.12712       56.01718
H         29.09896       42.75214       55.95957
H         27.75597       42.62314       56.75366

Ca 1.0



