%chk=holoCaM-CaMKII.loop4.water1.frame290.chk
%nprocshared=20
%mem=10GB
%nosave
#b3lyp/svp scf=(tight,noincore,xqc) Test 
#IOP(5/87=12) Density=Current Pop=(MK,readradii) iop(6/33=2) iop(6/42=6)

holoCaM-CaMKII.loop4.water1.frame290 

   -3  1 
C         48.74073       48.10281       80.10606
C         47.44084       48.60181       80.66228
O         46.47462       48.70232       79.91962
H         49.52639       48.05969       80.89065
H         48.59524       47.07610       79.70785
H         49.08448       48.77143       79.29211
N         47.33044       48.88405       81.98719
C         46.06699       49.24728       82.60683
C         45.67847       50.68695       82.25149
O         46.38886       51.59663       82.65829
C         46.20876       49.04967       84.13257
C         44.91500       49.15656       84.85101
O         44.88160       49.05227       86.06298
O         43.79081       49.38937       84.16805
H         48.15632       48.73391       82.58855
H         45.29874       48.52302       82.25028
H         46.92443       49.79481       84.54487
H         46.60235       48.03053       84.33769
N         44.58797       50.96918       81.47029
C         44.27924       52.33444       81.02300
C         43.49739       53.16159       82.04804
O         43.43690       54.36951       81.86254
C         43.56120       52.37727       79.63122
C         42.11478       51.81722       79.68628
C         44.41207       51.66265       78.56360
C         41.32275       52.01050       78.39058
H         44.07185       50.17738       81.06748
H         45.25337       52.85158       80.86489
H         43.49017       53.44879       79.33581
H         41.54659       52.34425       80.48198
H         42.13451       50.74108       79.92365
H         43.97853       51.79033       77.55152
H         45.43356       52.09640       78.53507
H         44.49097       50.57579       78.77559
H         41.26754       53.08848       78.12837
H         41.77121       51.44639       77.54874
H         40.28857       51.63036       78.53304
N         42.81147       52.59830       83.09137
C         41.99286       53.37912       84.02902
C         42.44206       53.22855       85.48605
O         41.84712       53.86786       86.34282
C         40.48611       53.10329       83.78683
C         40.05738       51.67385       83.94584
O         40.11319       51.06758       85.13999
O         39.68182       51.03939       82.97324
H         42.81877       51.57549       83.19560
H         42.10693       54.46525       83.81665
H         40.27265       53.40826       82.73795
H         39.86504       53.74213       84.45042
N         43.54832       52.50507       85.83039
C         44.16587       52.55923       87.14893
C         43.46682       51.84445       88.29051
O         44.02928       51.88603       89.37631
H         44.08029       52.01371       85.09923
H         44.32765       53.62439       87.42513
H         45.17061       52.08773       87.07219
N         42.29527       51.14975       88.16872
C         41.71578       50.42921       89.30862
C         42.62174       49.30941       89.84031
O         42.33841       48.80668       90.91970
C         40.29117       49.90795       89.01056
C         40.22165       48.85503       87.93790
O         39.53418       49.03751       86.94746
O         40.86097       47.68111       88.08935
H         41.79630       51.15901       87.27483
H         41.60442       51.17522       90.12736
H         39.65361       50.77256       88.72079
H         39.86338       49.47438       89.94011
N         43.73361       48.88928       89.16512
C         44.72014       47.96590       89.70456
C         44.93065       46.70763       88.88162
O         45.87361       45.99496       89.18502
H         43.93932       49.28717       88.24334
H         44.48224       47.65929       90.74641
H         45.68668       48.51374       89.73565
N         44.07731       46.32557       87.88355
C         44.23289       45.06606       87.14630
C         44.11599       45.27978       85.64454
O         43.85477       46.38418       85.20278
C         43.15021       44.07102       87.61632
C         43.37406       43.64502       89.07467
C         42.32250       42.66513       89.52382
N         41.52926       42.94312       90.58420
O         42.19139       41.60373       88.93177
H         43.24290       46.89391       87.69438
H         45.22999       44.61213       87.33437
H         43.18590       43.14863       86.99884
H         42.14358       44.52924       87.49431
H         43.36223       44.53738       89.73457
H         44.37020       43.15832       89.16462
H         41.62981       43.82775       91.10296
H         40.81413       42.26832       90.89260
N         44.27671       44.21276       84.80090
C         44.09390       44.28543       83.35682
C         42.90840       43.40786       82.99289
O         42.96012       42.20439       83.19590
C         45.38601       43.83675       82.61854
C         45.18958       43.79128       81.09224
C         46.55312       44.78068       82.94556
H         44.50723       43.29288       85.20041
H         43.87420       45.32596       83.04417
H         45.65670       42.81145       82.95612
H         46.12376       43.45315       80.59527
H         44.39636       43.06614       80.81827
H         44.91561       44.79184       80.69697
H         46.75110       44.79959       84.03731
H         47.47832       44.43462       82.43668
H         46.32668       45.81448       82.60439
N         41.79200       43.97066       82.45107
C         40.62719       43.20876       82.02303
C         40.86961       42.67947       80.61645
O         41.88083       43.00861       80.02304
C         39.39030       44.14695       82.09834
C         38.06863       43.50309       81.76625
N         37.60446       42.45517       82.48529
O         37.40041       43.94452       80.84353
H         41.77672       44.98435       82.30283
H         40.46988       42.35983       82.72266
H         39.55254       45.01342       81.41862
H         39.31125       44.54146       83.13502
H         38.14686       42.07211       83.27232
H         36.69869       42.02266       82.25012
N         39.97864       41.84801       80.01636
C         40.09544       41.39081       78.63290
C         40.06282       42.57250       77.67807
O         40.93684       42.67996       76.82923
C         38.93550       40.41697       78.33753
C         38.87464       39.94096       76.90572
C         39.96279       39.28245       76.30781
C         37.70130       40.14258       76.15912
C         39.87479       38.83552       74.98482
C         37.61274       39.68772       74.84258
C         38.69978       39.03132       74.25021
O         38.62404       38.58240       72.98134
H         39.16707       41.53461       80.56469
H         41.05122       40.83783       78.49558
H         37.97457       40.91133       78.60286
H         39.04999       39.53207       79.00031
H         40.87773       39.11430       76.86106
H         36.84728       40.64306       76.59880
H         40.71880       38.33089       74.53188
H         36.69671       39.84347       74.28682
H         37.82346       38.68696       72.44715
N         39.08481       43.51146       77.78819
C         38.95927       44.67957       76.92135
C         40.25999       45.47072       76.87747
O         40.74088       45.76270       75.79150
C         37.77737       45.54642       77.41817
C         37.39821       46.66934       76.44444
C         36.19165       47.41315       76.94710
O         36.24220       48.07303       78.12020
O         35.15853       47.42035       76.29620
H         38.39954       43.39165       78.54823
H         38.71524       44.33069       75.89302
H         38.01024       45.96544       78.42319
H         36.88507       44.88810       77.51680
H         37.16219       46.21990       75.45417
H         38.23896       47.38316       76.31970
N         40.90591       45.80517       78.02906
C         42.17051       46.54071       78.06591
C         43.25995       45.79664       77.29958
O         43.87546       46.38860       76.42361
C         42.60512       46.83567       79.52678
C         41.53846       47.68015       80.26061
C         41.96545       48.13836       81.62781
O         41.93944       49.32306       81.90865
O         42.31702       47.25641       82.57491
H         40.48048       45.49772       78.91505
H         42.02775       47.53206       77.57968
H         43.55712       47.41207       79.49519
H         42.78723       45.88997       80.08262
H         40.60810       47.09409       80.38576
H         41.29874       48.57306       79.64481
N         43.52054       44.48390       77.54198
C         44.51651       43.72963       76.81012
H         45.52732       44.14562       77.00121
H         44.50147       42.66674       77.13737
H         44.29795       43.75950       75.72090
H         42.96895       43.98871       78.24518
Ca        41.93985       49.83606       85.25779
O         38.85606       47.94032       84.07613
H         38.36289       48.72551       84.42385
H         38.14752       47.30139       83.81133

Ca 1.0



