%chk=holoCaM-CaMKII.loop4.water2.frame178.chk
%nprocshared=20
%mem=10GB
%nosave
#b3lyp/svp scf=(tight,noincore,xqc) Test 
#IOP(5/87=12) Density=Current Pop=(MK,readradii) iop(6/33=2) iop(6/42=6)

holoCaM-CaMKII.loop4.water2.frame178 

   -3  1 
C         79.68482       61.37704        6.52674
C         78.78555       60.21014        6.26247
O         79.25659       59.18603        5.78803
H         80.72964       61.14078        6.23288
H         79.33415       62.25739        5.95044
H         79.66631       61.61564        7.61159
N         77.46535       60.28491        6.58314
C         76.56708       59.15281        6.42443
C         76.35898       58.82622        4.95127
O         75.84353       59.65569        4.21435
C         75.22335       59.44343        7.10055
C         74.37063       58.21923        7.20151
O         73.27773       58.31127        7.72169
O         74.81392       57.00952        6.80257
H         77.11328       61.15460        7.01423
H         77.02755       58.29509        6.96723
H         74.68332       60.24640        6.55233
H         75.40292       59.79192        8.14181
N         76.77598       57.63152        4.45675
C         76.70769       57.26892        3.04423
C         75.27962       56.94994        2.59269
O         74.86287       57.54798        1.60990
C         77.74875       56.14321        2.73707
C         79.18007       56.71968        2.96663
C         77.59742       55.59615        1.30671
C         80.31649       55.70977        2.82400
H         77.24731       56.98541        5.10779
H         77.05515       58.13278        2.43055
H         77.58498       55.29362        3.41657
H         79.25827       57.13116        3.99369
H         79.36185       57.55650        2.25619
H         76.58793       55.15538        1.16716
H         77.75275       56.39829        0.55621
H         78.31657       54.77312        1.12077
H         81.28035       56.21914        3.04084
H         80.18715       54.88161        3.54714
H         80.37700       55.30292        1.79600
N         74.47836       56.02924        3.21737
C         73.17391       55.62295        2.66969
C         71.96842       56.22398        3.39839
O         70.85027       55.95941        2.97752
C         73.10357       54.08659        2.49983
C         73.02590       53.29114        3.77242
O         72.98731       52.07252        3.71786
O         72.96234       53.89634        4.96808
H         74.80844       55.59091        4.08781
H         73.07932       56.01740        1.63424
H         73.99877       53.75834        1.92693
H         72.20419       53.83118        1.89788
N         72.11399       57.14018        4.39844
C         71.01260       57.96206        4.88454
C         70.00265       57.27920        5.78210
O         68.82609       57.28010        5.44826
H         73.06014       57.39803        4.70971
H         70.49896       58.42056        4.00945
H         71.43475       58.79978        5.47917
N         70.37814       56.78439        6.99576
C         69.43404       56.34253        8.02719
C         69.55354       57.18900        9.30763
O         68.77054       56.96513       10.21973
C         69.63171       54.83628        8.31206
C         71.02021       54.54025        8.79589
O         71.88036       53.88312        8.00064
O         71.41514       55.00190        9.85256
H         71.38122       56.77147        7.21749
H         68.38997       56.46961        7.66589
H         69.45693       54.28858        7.36080
H         68.89219       54.47140        9.05751
N         70.50214       58.16661        9.45104
C         70.64972       59.02005       10.62101
C         71.96837       58.82100       11.35567
O         72.22671       59.59591       12.26641
H         71.15696       58.35554        8.69121
H         69.83131       58.86069       11.35485
H         70.58723       60.07424       10.27377
N         72.80964       57.77505       11.09080
C         74.01063       57.48343       11.88072
C         75.21184       57.20676       10.99117
O         75.06133       57.16322        9.78010
C         73.74596       56.23110       12.74311
C         72.59395       56.44284       13.73473
C         72.35180       55.19775       14.54684
N         71.15622       54.56464       14.50054
O         73.24302       54.75643       15.25729
H         72.54441       57.09630       10.36624
H         74.26052       58.33470       12.55169
H         74.65795       55.97224       13.32295
H         73.50290       55.37485       12.07565
H         71.66904       56.70734       13.18007
H         72.84111       57.28115       14.42142
H         70.39037       54.92000       13.90959
H         70.99414       53.71324       15.05811
N         76.44211       56.96705       11.53831
C         77.60364       56.56918       10.74937
C         78.06745       55.20289       11.23607
O         78.55344       55.08708       12.35321
C         78.73317       57.63295       10.84091
C         79.97479       57.21964       10.03032
C         78.24008       58.99564       10.32892
H         76.55772       57.03992       12.56107
H         77.32230       56.48366        9.67594
H         79.03582       57.74865       11.90533
H         80.77010       57.98914       10.12743
H         80.39477       56.26479       10.40413
H         79.72346       57.10651        8.95463
H         77.37359       59.35119       10.92397
H         79.04702       59.75421       10.41754
H         77.93632       58.92556        9.26262
N         77.91357       54.11271       10.43647
C         78.34786       52.76061       10.78060
C         79.87379       52.69328       10.82257
O         80.52987       53.66737       10.48284
C         77.75256       51.79348        9.71434
C         78.02310       50.32158        9.89022
N         77.62326       49.66347       11.00095
O         78.58256       49.70552        8.99623
H         77.43354       54.25195        9.54205
H         77.92916       52.49585       11.77562
H         78.12538       52.10017        8.71697
H         76.64808       51.91838        9.71114
H         77.13394       50.15716       11.75990
H         77.80518       48.65311       11.09815
N         80.51137       51.56406       11.23731
C         81.96077       51.39086       11.17338
C         82.41881       51.39890        9.72473
O         83.36821       52.09587        9.40167
C         82.36400       50.07168       11.86663
C         83.85117       49.79678       11.79024
C         84.78944       50.72852       12.27231
C         84.31177       48.59222       11.23202
C         86.15953       50.46236       12.18515
C         85.68115       48.32384       11.15697
C         86.61036       49.26037       11.63069
O         87.93438       49.01574       11.56009
H         79.94244       50.78577       11.59821
H         82.45830       52.21669       11.72774
H         81.79891       49.22700       11.41400
H         82.07118       50.13843       12.93704
H         84.46730       51.66486       12.70844
H         83.61139       47.85516       10.85945
H         86.87192       51.19152       12.55067
H         86.01783       47.38784       10.72965
H         88.28644       48.19430       11.18833
N         81.76933       50.64586        8.79517
C         82.11996       50.62107        7.37552
C         81.91728       51.96930        6.67157
O         82.29374       52.05475        5.51046
C         81.28492       49.54761        6.63831
C         81.55734       48.12557        7.16042
C         80.66632       47.12572        6.48201
O         80.71460       46.97408        5.27179
O         79.80820       46.38698        7.21186
H         80.99319       50.06063        9.12685
H         83.19552       50.34779        7.28790
H         81.53049       49.56268        5.55290
H         80.20583       49.79374        6.75282
H         81.37038       48.06468        8.25183
H         82.62029       47.85702        6.97737
N         81.35540       53.05851        7.28346
C         81.20238       54.36039        6.63068
C         82.10430       55.41697        7.26595
O         82.19111       56.50819        6.71941
C         79.73060       54.83492        6.68680
C         78.74232       53.79458        6.13858
C         77.31827       54.28038        6.20968
O         76.59932       54.21623        5.22982
O         76.80572       54.74943        7.35842
H         81.02360       52.97647        8.24714
H         81.51186       54.28235        5.56660
H         79.63016       55.78633        6.11905
H         79.46409       55.03229        7.74890
H         78.82119       52.87867        6.75221
H         78.99459       53.52526        5.09152
N         82.81057       55.17785        8.40834
C         83.71024       56.14569        8.99426
H         84.53785       56.36506        8.28734
H         83.16469       57.07891        9.24280
H         84.14959       55.73082        9.92840
H         82.71573       54.28699        8.89960
Ca        73.51422       55.23806        7.25845
O         75.06031       52.08343        6.93642
H         75.16849       51.14376        7.22772
H         74.14223       52.12433        6.56954
O         74.15099       53.27323       10.02401
H         73.89838       52.54229        9.40606
H         73.41595       53.29688       10.68652

Ca 1.0



