%chk=holoCaM-CaMKII.loop3.water2.frame91.chk
%nprocshared=20
%mem=10GB
%nosave
#b3lyp/svp scf=(tight,noincore,xqc) Test 
#IOP(5/87=12) Density=Current Pop=(MK,readradii) iop(6/33=2) iop(6/42=6)

holoCaM-CaMKII.loop3.water2.frame91 

   0  1 
C         17.90501       45.78481       62.16605
C         18.97085       44.77793       61.86222
O         18.65684       43.61446       61.66390
H         16.90498       45.30279       62.20711
H         18.11265       46.26641       63.14471
H         17.89888       46.55871       61.37028
N         20.27496       45.16365       61.83162
C         21.37654       44.26304       61.52857
C         22.15486       44.01881       62.79843
O         23.31873       44.37757       62.89840
C         22.18402       44.86271       60.35700
C         23.37201       44.07470       59.86815
O         24.45407       44.63179       59.78577
O         23.26701       42.80089       59.43942
H         20.50255       46.14529       62.05392
H         20.98813       43.28377       61.21497
H         22.52484       45.88389       60.63478
H         21.50229       44.96350       59.49711
N         21.52337       43.40297       63.83965
C         22.15992       43.12883       65.12009
C         23.17530       41.98183       65.06827
O         23.80366       41.75239       66.09249
C         21.08580       42.92083       66.22115
C         20.31887       44.24300       66.47927
C         19.41808       44.21061       67.72835
C         18.10053       43.43183       67.58468
N         17.15700       44.11452       66.69406
H         20.52587       43.16196       63.72886
H         22.73600       44.03118       65.42443
H         21.60945       42.65926       67.16647
H         20.39869       42.08584       65.96261
H         19.75518       44.57759       65.58326
H         21.08750       45.01767       66.69028
H         19.15464       45.25468       68.00645
H         20.01000       43.78977       68.56971
H         17.63516       43.37899       68.59477
H         18.28469       42.39233       67.23987
H         16.24735       43.59899       66.69973
H         16.97982       45.08768       67.03798
H         17.51815       44.14724       65.71531
N         23.45255       41.27097       63.92875
C         24.55939       40.30709       63.84314
C         25.69619       40.83256       62.96743
O         26.73792       40.19244       62.92314
C         24.09997       38.90217       63.39194
C         23.43450       38.87593       62.04869
O         22.23261       39.44915       61.89333
O         23.94299       38.27850       61.11385
H         22.92476       41.47724       63.07089
H         25.01751       40.17169       64.84639
H         23.39276       38.47572       64.13402
H         24.99344       38.23908       63.36360
N         25.59948       42.01212       62.29165
C         26.70026       42.62894       61.57899
C         27.19723       41.80074       60.42595
O         28.38538       41.51574       60.38220
H         24.72533       42.54338       62.31109
H         27.52785       42.84067       62.29089
H         26.35928       43.60425       61.17267
N         26.34897       41.41675       59.43065
C         26.79542       40.72541       58.22425
C         26.56679       41.55478       56.96120
O         27.07649       41.16150       55.92074
C         26.17488       39.31217       58.12544
C         24.66818       39.23666       58.00233
N         24.06920       38.03021       57.87787
O         23.98154       40.24434       58.01557
H         25.35534       41.64634       59.53460
H         27.89570       40.57856       58.27825
H         26.46927       38.73954       59.03159
H         26.61466       38.80275       57.24122
H         24.62837       37.16489       57.86600
H         23.04483       37.95917       57.78999
N         25.82765       42.70447       56.96122
C         25.67405       43.56730       55.80167
C         24.29482       43.49012       55.18402
O         24.02086       44.29416       54.30585
H         25.34112       43.00772       57.81306
H         26.40264       43.31947       54.99980
H         25.88898       44.60894       56.12646
N         23.41124       42.50036       55.51509
C         22.12851       42.31194       54.84116
C         20.98641       42.22018       55.84383
O         21.23614       42.15271       57.03685
C         22.19196       41.00418       54.02733
C         23.35670       40.97847       53.06186
C         24.38370       40.03102       53.22479
C         23.43182       41.89062       51.99572
C         25.46261       39.99516       52.33757
C         24.51282       41.85152       51.10745
C         25.52964       40.90455       51.27331
O         26.56193       40.87632       50.40597
H         23.68648       41.79475       56.20502
H         21.92563       43.16438       54.15754
H         21.24803       40.84770       53.46292
H         22.29921       40.16291       54.74675
H         24.35338       39.31922       54.04055
H         22.65364       42.62864       51.84946
H         26.24445       39.25902       52.47802
H         24.55944       42.55673       50.28715
H         27.28054       40.23198       50.48184
N         19.69099       42.22268       55.40399
C         18.52206       42.12907       56.28120
C         17.60233       41.01512       55.77953
O         17.32074       40.97544       54.59098
C         17.73654       43.47449       56.29622
C         18.62596       44.70670       56.60380
C         16.55885       43.40919       57.29361
C         19.24516       44.74169       58.00106
H         19.52319       42.34108       54.39398
H         18.83033       41.93176       57.32737
H         17.32196       43.64511       55.27831
H         18.00908       45.62448       56.49085
H         19.44057       44.76688       55.85101
H         16.00317       44.36939       57.30767
H         15.84357       42.61454       57.01131
H         16.91734       43.18958       58.32262
H         19.89266       43.86426       58.17855
H         19.85818       45.66278       58.08699
H         18.47076       44.78013       58.79264
N         17.01484       40.14409       56.65102
C         16.04381       39.12561       56.25702
C         14.66998       39.47634       56.81148
O         14.53808       40.47297       57.49955
C         16.50929       37.74426       56.75271
O         16.55659       37.69798       58.15584
H         17.19838       40.25168       57.65108
H         15.95165       39.08319       55.15091
H         17.50248       37.49370       56.31235
H         15.81293       36.95236       56.40604
H         17.49135       37.89368       58.42484
N         13.58533       38.70166       56.52825
C         12.24292       38.99505       57.02924
C         12.20073       38.96093       58.54462
O         11.71323       39.90795       59.14675
C         11.23561       37.98703       56.47010
H         13.71868       37.87784       55.92339
H         11.92405       40.00052       56.67180
H         11.23395       38.03600       55.36038
H         11.48812       36.95299       56.78583
H         10.21342       38.23595       56.82948
N         12.73041       37.90455       59.22408
C         12.74538       37.79138       60.68050
C         13.32456       39.03179       61.32629
O         12.69276       39.59191       62.21118
C         13.56878       36.56634       61.10001
H         13.17874       37.15683       58.67113
H         11.70608       37.65038       61.05215
H         14.61992       36.65978       60.74880
H         13.57213       36.46422       62.20638
H         13.13105       35.64391       60.66355
N         14.51251       39.53587       60.89969
C         15.12379       40.73328       61.46380
C         14.18299       41.92524       61.37957
O         13.86483       42.49215       62.41643
C         16.45582       41.02993       60.75248
C         17.50534       39.94817       61.06658
C         18.80734       40.26446       60.40514
O         19.87716       40.57598       61.14166
O         18.90983       40.26271       59.19436
H         14.98638       39.05073       60.12272
H         15.34522       40.55879       62.54112
H         16.84508       42.00038       61.12013
H         16.28916       41.11868       59.65750
H         17.17595       38.93904       60.74358
H         17.66167       39.92700       62.16680
N         13.67705       42.35113       60.19217
C         12.75095       43.45950       60.10440
H         11.84149       43.24104       60.70499
H         13.22989       44.38745       60.48198
H         12.44557       43.61705       59.04818
H         13.93798       41.86698       59.32715
Ca        21.65728       41.35856       60.01883
O         20.65103       39.05601       56.96677
H         20.20651       38.26685       57.36548
H         20.65803       38.86825       55.99523
O         20.93664       37.56602       59.98179
H         20.79060       37.27436       60.91664
H         20.79154       36.74944       59.44166

Ca 1.0



