%chk=holoCaM.loop3.water3.frame206.chk
%nprocshared=20
%mem=10GB
%nosave
#b3lyp/svp scf=(tight,noincore,xqc) Test 
#IOP(5/87=12) Density=Current Pop=(MK,readradii) iop(6/33=2) iop(6/42=6)

holoCaM.loop3.water3.frame206 

   0  1 
C         11.63414       58.00976       59.50788
C         12.54464       56.82734       59.36872
O         12.78749       56.36355       58.26368
H         10.71310       57.68977       60.04100
H         12.13738       58.79280       60.11470
H         11.35791       58.43350       58.52100
N         13.05923       56.27310       60.49511
C         13.93732       55.11743       60.53418
C         13.13489       53.89240       60.98553
O         12.48628       53.92379       62.02092
C         15.11638       55.45273       61.46338
C         15.99945       54.30396       61.78195
O         15.80727       53.20227       61.31572
O         16.99508       54.48650       62.64485
H         12.80207       56.70161       61.39777
H         14.36080       54.90339       59.52637
H         14.72807       55.82563       62.43260
H         15.74687       56.24255       60.99909
N         13.11770       52.79006       60.17898
C         12.25033       51.62503       60.32391
C         12.69643       50.57524       61.35189
O         11.84036       49.81307       61.77819
C         12.05683       50.99767       58.92411
C         10.87745       50.03233       58.83982
C         10.62234       49.62741       57.38067
C          9.56397       48.52117       57.29840
N          9.09849       48.31645       55.92562
H         13.60490       52.89256       59.29132
H         11.26524       52.02780       60.63938
H         12.99669       50.49681       58.58942
H         11.83860       51.82731       58.21605
H          9.96655       50.54984       59.21859
H         11.07445       49.14141       59.46803
H         11.55508       49.24375       56.91112
H         10.29418       50.53469       56.82520
H          8.68530       48.76602       57.93410
H         10.02855       47.58666       57.68526
H          8.50405       47.45669       55.89870
H          8.51160       49.13104       55.62932
H          9.89825       48.20132       55.26224
N         13.98800       50.44438       61.78299
C         14.38231       49.52790       62.86815
C         14.98689       50.27680       64.06656
O         15.22542       49.64371       65.08631
C         15.31211       48.39968       62.37646
C         16.62703       48.83657       61.83764
O         17.42374       47.98000       61.49409
O         16.94802       50.13810       61.72960
H         14.70448       51.02936       61.33925
H         13.48450       48.99972       63.25578
H         14.79906       47.80837       61.58722
H         15.53671       47.72045       63.22801
N         15.20364       51.62705       64.03955
C         15.65490       52.41603       65.18004
C         17.15014       52.36762       65.43625
O         17.58351       52.77963       66.50288
H         14.95566       52.14982       63.20172
H         15.07251       52.11227       66.07316
H         15.42888       53.48428       64.97743
N         17.99721       51.90918       64.48034
C         19.44154       51.75024       64.63678
C         20.25347       53.06301       64.52563
O         21.46734       53.00475       64.66521
C         19.89291       50.73552       63.56114
C         20.03733       51.34405       62.19609
N         21.11471       51.04156       61.44316
O         19.17332       52.08117       61.75563
H         17.56862       51.56973       63.61416
H         19.61505       51.25873       65.62166
H         19.12924       49.92770       63.48829
H         20.84308       50.24489       63.84509
H         21.81666       50.37487       61.78691
H         21.21878       51.40828       60.49094
N         19.66464       54.25486       64.19538
C         20.37459       55.52063       63.99678
C         20.61163       55.90353       62.53342
O         21.32980       56.86545       62.30027
H         18.65691       54.27085       64.07917
H         21.35116       55.48866       64.52070
H         19.78249       56.34019       64.45754
N         20.07934       55.19217       61.50225
C         20.34556       55.44164       60.08507
C         19.01701       55.39800       59.26322
O         18.39135       54.16562       59.40394
C         21.39956       54.40966       59.62346
C         22.82018       54.83234       59.94943
C         23.56966       54.22071       60.97158
C         23.42804       55.82840       59.16342
C         24.90885       54.58479       61.17989
C         24.76366       56.18566       59.37093
C         25.51105       55.55806       60.37587
O         26.80565       55.87872       60.57656
H         19.49985       54.38174       61.72900
H         20.76850       56.45028       59.91164
H         21.37755       54.23019       58.52846
H         21.15767       53.45227       60.10241
H         23.12409       53.46384       61.60379
H         22.87267       56.30759       58.36658
H         25.48995       54.10533       61.95840
H         25.22069       56.93918       58.74051
H         27.25768       56.55110       60.04697
N         19.27348       55.66901       57.83718
C         18.12730       55.63674       56.88781
C         18.67513       55.19422       55.51964
O         19.73149       55.65119       55.11049
C         17.30368       56.97486       56.83362
C         16.52346       57.17064       58.16392
C         16.31374       56.96485       55.64893
C         15.69859       58.45582       58.23412
H         19.79929       56.56597       57.73284
H         17.39024       54.87228       57.19771
H         17.99414       57.82981       56.67439
H         17.24534       57.21155       58.99849
H         15.83263       56.31431       58.33233
H         15.70884       57.89028       55.58687
H         16.85587       56.89080       54.68400
H         15.61772       56.12043       55.75092
H         15.28962       58.57428       59.25995
H         16.33629       59.33191       57.99647
H         14.83284       58.41724       57.54121
N         17.99107       54.26790       54.78417
C         18.40072       53.64159       53.53190
C         17.39382       53.96775       52.42606
O         16.44684       54.67773       52.70543
C         18.47746       52.11606       53.77343
O         17.18818       51.55787       53.84464
H         17.10036       53.96361       55.14012
H         19.40374       54.01094       53.24265
H         19.02391       51.94517       54.73070
H         19.04164       51.62116       52.95712
H         17.24236       50.74127       54.40567
N         17.52542       53.50184       51.14910
C         16.53854       53.77934       50.09408
C         15.21641       53.06915       50.36126
O         14.16602       53.63940       50.09835
C         17.09092       53.40219       48.71598
H         18.35411       52.93323       50.91902
H         16.34323       54.87381       50.04062
H         17.95760       54.05817       48.47714
H         17.42241       52.34450       48.68761
H         16.32221       53.57173       47.93028
N         15.20264       51.83660       50.93832
C         13.98867       51.14716       51.37343
C         13.23029       51.94893       52.42267
O         12.01060       51.87580       52.46126
C         14.37064       49.79081       51.97721
H         16.11153       51.38872       51.12874
H         13.31261       50.96055       50.50868
H         13.48104       49.29994       52.42384
H         14.78896       49.12583       51.19133
H         15.14191       49.92344       52.76707
N         13.89716       52.68102       53.35116
C         13.24140       53.47200       54.39205
C         12.62977       54.72325       53.77969
O         11.46396       54.98693       54.03461
C         14.24510       53.74559       55.52452
C         14.54986       52.41883       56.27098
C         15.69113       52.45079       57.24033
O         15.53152       52.15538       58.53383
O         16.81919       52.60095       56.83478
H         14.92651       52.68805       53.30540
H         12.42440       52.89024       54.86803
H         13.85567       54.48464       56.25628
H         15.11814       54.17326       55.03857
H         14.80772       51.62093       55.54738
H         13.63024       52.11641       56.80409
N         13.31259       55.46250       52.86109
C         12.71238       56.51627       52.07194
H         11.73951       56.85314       52.48339
H         13.40329       57.38161       51.99209
H         12.54257       56.11595       51.04870
H         14.25647       55.18338       52.59793
Ca        17.43536       52.15708       59.66412
O         19.43490       51.91419       57.95069
H         18.94733       51.67168       57.12875
H         20.38428       51.78229       57.72562
O         19.32604       49.80451       59.63668
H         20.10273       49.21915       59.79965
H         18.59803       49.34314       60.09829
O         16.19413       49.63919       58.90376
H         15.50830       49.00268       59.22136
H         16.92648       49.07830       58.54995

Ca 1.0



