%chk=holoCaM.loop4.water3.frame35.chk
%nprocshared=20
%mem=10GB
%nosave
#b3lyp/svp scf=(tight,noincore,xqc) Test 
#IOP(5/87=12) Density=Current Pop=(MK,readradii) iop(6/33=2) iop(6/42=6)

holoCaM.loop4.water3.frame35 

   -3  1 
C         95.41314       94.26124       33.07828
C         94.47281       95.36560       33.44583
O         93.36937       95.37512       32.92024
H         96.36301       94.33641       33.64444
H         94.93249       93.29039       33.33466
H         95.62183       94.28220       31.99005
N         94.80941       96.28799       34.39909
C         93.82059       97.18299       34.97554
C         94.36474       98.57154       35.31594
O         95.36108       98.64161       36.02162
C         93.34379       96.53655       36.29868
C         92.07979       97.16469       36.76363
O         91.47340       97.99278       35.90800
O         91.55626       96.83318       37.81253
H         95.72020       96.19995       34.87160
H         92.95808       97.26612       34.27535
H         94.13987       96.60705       37.06915
H         93.10026       95.46563       36.13617
N         93.71484       99.71674       34.93324
C         94.12525      101.05475       35.38084
C         93.02052      101.83030       36.13206
O         93.31769      102.93567       36.56594
C         94.73939      101.86758       34.19747
C         93.76186      102.04520       33.00727
C         96.05487      101.19285       33.75725
C         94.32371      102.92990       31.88734
H         92.89209       99.63937       34.31944
H         94.93731      100.96834       36.13527
H         95.01076      102.87571       34.58407
H         92.82561      102.51835       33.37217
H         93.50845      101.05741       32.57151
H         96.73512      101.08126       34.62901
H         95.86237      100.18785       33.32617
H         96.60158      101.80613       33.01456
H         94.57561      103.93780       32.27962
H         95.22690      102.48216       31.42452
H         93.56704      103.03958       31.08252
N         91.75075      101.34766       36.33450
C         90.69695      102.10793       37.03085
C         89.91677      101.31909       38.09778
O         89.07748      101.92958       38.74730
C         89.73667      102.75153       36.00033
C         89.00064      101.79719       35.10221
O         89.17398      100.48149       35.20597
O         88.24609      102.22323       34.24674
H         91.50358      100.44512       35.92271
H         91.15680      102.96264       37.57711
H         90.33295      103.43306       35.35779
H         88.97896      103.36197       36.53822
N         90.13295       99.99866       38.37051
C         89.44995       99.29483       39.45276
C         87.95429       99.07373       39.27839
O         87.35430       98.59088       40.22976
H         90.86120       99.48695       37.86134
H         89.62230       99.85382       40.39760
H         89.90292       98.28654       39.57987
N         87.27481       99.34622       38.12268
C         85.83650       99.08353       37.97514
C         85.45695       97.58807       38.00589
O         84.28279       97.29365       37.82722
C         85.24962       99.78443       36.71775
C         85.73225       99.30704       35.38028
O         86.69257       98.38189       35.27618
O         85.24470       99.77680       34.36525
H         87.78164       99.77252       37.33566
H         85.31161       99.57738       38.82274
H         85.45607      100.87446       36.78064
H         84.14585       99.65060       36.73505
N         86.36006       96.59338       38.26698
C         86.01336       95.18126       38.32897
C         85.87105       94.52983       36.96668
O         85.53452       93.35493       36.93035
H         87.32457       96.82419       38.50267
H         85.09214       95.05446       38.93945
H         86.82855       94.63110       38.84739
N         86.10421       95.21461       35.80865
C         85.93104       94.64484       34.47894
C         87.08369       94.99997       33.55979
O         87.36818       96.17965       33.39312
C         84.67324       95.21285       33.81396
C         83.41764       95.03813       34.66419
C         82.22262       95.39880       33.83106
N         81.61227       96.59571       33.97295
O         81.82661       94.61222       32.98348
H         86.35935       96.19948       35.86586
H         85.79303       93.54236       34.53674
H         84.55154       94.68364       32.84192
H         84.79128       96.30260       33.60836
H         83.50488       95.70936       35.54696
H         83.30290       93.99497       35.03122
H         81.96511       97.29143       34.64578
H         80.81030       96.84157       33.37461
N         87.73301       94.03861       32.85043
C         88.69948       94.37372       31.80946
C         88.00817       95.11136       30.65847
O         86.97054       94.66897       30.18540
C         89.51005       93.13014       31.34645
C         88.67357       92.05830       30.63231
C         90.69068       93.55558       30.45474
H         87.50052       93.05162       33.03099
H         89.45960       95.04323       32.25857
H         89.94911       92.67057       32.26036
H         87.85190       91.69039       31.27799
H         88.24503       92.44991       29.68704
H         89.31967       91.18835       30.38613
H         91.32990       94.29484       30.98543
H         91.32436       92.67733       30.20981
H         90.33495       94.01066       29.50751
N         88.57767       96.23591       30.14560
C         88.04652       97.03810       29.04409
C         88.86811       96.77670       27.78789
O         89.88944       96.11185       27.85571
C         88.08118       98.52133       29.50547
C         87.92661       99.60642       28.46421
N         86.77785       99.78822       27.77761
O         88.86495      100.36537       28.26595
H         89.48722       96.51501       30.53016
H         87.00682       96.72632       28.79595
H         89.07799       98.69278       29.96571
H         87.31848       98.66281       30.29967
H         85.96139       99.18302       27.93553
H         86.71012      100.55330       27.08826
N         88.39706       97.18047       26.57513
C         89.04591       96.87188       25.30096
C         90.38877       97.55477       25.14381
O         91.28865       96.94819       24.57873
C         88.08511       97.10406       24.11104
C         87.46036       98.47889       24.02673
C         88.13728       99.55946       23.44053
C         86.15554       98.67446       24.51713
C         87.51537      100.81268       23.34851
C         85.54617       99.92614       24.44181
C         86.21860      100.99888       23.85397
O         85.60636      102.19757       23.77684
H         87.48596       97.65342       26.56022
H         89.24494       95.77634       25.27465
H         87.26037       96.37243       24.26073
H         88.55123       96.82817       23.13964
H         89.13460       99.42953       23.03972
H         85.61100       97.85697       24.97397
H         88.03972      101.63765       22.88328
H         84.54729      100.05845       24.83884
H         86.02537      102.96636       23.36581
N         90.61419       98.80224       25.63283
C         91.93297       99.42756       25.59924
C         92.86272       98.72044       26.57581
O         94.01474       98.48450       26.23951
C         91.84124      100.94046       25.88375
C         90.96138      101.62734       24.81902
C         90.90470      103.11274       24.99996
O         89.72389      103.71687       25.23362
O         91.91949      103.78413       24.90535
H         89.83218       99.30722       26.07406
H         92.36018       99.35235       24.57352
H         92.86668      101.37197       25.82912
H         91.43155      101.12995       26.89942
H         89.92918      101.22990       24.88053
H         91.35570      101.41259       23.80093
N         92.40570       98.31596       27.79742
C         93.22353       97.56859       28.75456
C         93.51706       96.14762       28.27705
O         94.34289       95.48332       28.88926
C         92.48227       97.42657       30.10068
C         92.12182       98.77647       30.74219
C         91.29990       98.63340       31.99362
O         90.94906       97.53938       32.40485
O         90.91986       99.74001       32.65678
H         91.42877       98.53393       28.04126
H         94.17264       98.12621       28.91879
H         93.11206       96.85553       30.81658
H         91.55937       96.84353       29.91406
H         91.52533       99.39612       30.04430
H         93.05947       99.31699       30.98110
N         92.80300       95.57519       27.26772
C         92.94711       94.18585       26.89628
H         92.73163       93.53885       27.77456
H         92.21361       93.93511       26.09890
H         93.97189       93.98911       26.52295
H         92.08452       96.11506       26.77764
Ca        89.39313       98.31102       35.31340
O         89.06750       95.95488       36.96694
H         89.18749       96.86374       37.34003
H         89.12780       95.36001       37.75419
O         88.11475       99.50385       32.60463
H         87.20637       99.17664       32.81329
H         87.97522      100.42115       32.26030
O         90.43346       95.43442       34.61105
H         90.79419       94.75305       35.23010
H         91.06811       95.43283       33.85555

Ca 1.0



