%chk=holoCaM-CaMKII.loop2.water1.frame322.chk
%nprocshared=20
%mem=10GB
%nosave
#b3lyp/svp scf=(tight,noincore,xqc) Test 
#IOP(5/87=12) Density=Current Pop=(MK,readradii) iop(6/33=2) iop(6/42=6)

holoCaM-CaMKII.loop2.water1.frame322 

   -2  1 
C         49.47757       32.76773       56.96896
C         48.61371       32.12811       55.92131
O         48.52079       30.91254       55.84840
H         50.30496       33.32547       56.47961
H         48.86530       33.49344       57.54945
H         49.89501       32.01477       57.66579
N         47.91589       32.93462       55.08957
C         46.98181       32.48973       54.06560
C         47.64524       31.72577       52.92326
O         48.64806       32.18179       52.39408
C         46.29274       33.74031       53.51678
C         45.38040       33.42908       52.39899
O         44.36255       32.56456       52.57363
O         45.58100       33.95551       51.31793
H         48.01885       33.95176       55.24211
H         46.19094       31.86138       54.52554
H         47.05786       34.45568       53.14792
H         45.71170       34.22152       54.33045
N         47.04274       30.60318       52.42556
C         47.50788       29.84667       51.26813
C         46.46031       29.78059       50.13053
O         46.74349       29.13259       49.13261
C         47.85407       28.43372       51.75836
H         46.18881       30.26291       52.88291
H         48.43269       30.29949       50.85168
H         46.95599       27.93633       52.18758
H         48.25444       27.80728       50.93460
H         48.62736       28.49523       52.55562
N         45.22600       30.37273       50.22541
C         44.12502       30.18054       49.26190
C         43.37114       31.46431       48.82215
O         42.57439       31.38017       47.89796
C         43.13380       29.16644       49.87824
C         42.82049       29.46162       51.31733
O         42.34919       30.53011       51.63668
O         43.12678       28.56551       52.27324
H         45.00715       30.86223       51.09207
H         44.51643       29.73213       48.32315
H         43.60800       28.16435       49.86990
H         42.19759       29.11632       49.28273
N         43.53914       32.65959       49.44609
C         42.88292       33.92545       49.11255
C         41.58300       34.17939       49.86722
O         41.03943       35.26842       49.74869
H         44.14841       32.66171       50.24209
H         42.68053       33.99652       48.02305
H         43.59451       34.74370       49.36104
N         40.98732       33.19532       50.59131
C         39.63847       33.26079       51.14812
C         39.43523       34.23513       52.31650
O         38.31433       34.29495       52.80369
C         39.14522       31.81742       51.46095
C         39.75961       31.13051       52.65179
N         39.46100       29.83730       52.91056
O         40.52977       31.72414       53.38298
H         41.44920       32.29069       50.59644
H         38.97139       33.60081       50.32650
H         39.35792       31.19151       50.56426
H         38.04635       31.82122       51.61044
H         38.83860       29.30692       52.28414
H         39.86641       29.35971       53.72774
N         40.41620       35.06755       52.78899
C         40.15513       36.07476       53.81772
C         39.93133       35.51397       55.21439
O         39.52795       36.27282       56.08405
H         41.34882       35.06280       52.35642
H         39.25725       36.65510       53.50606
H         41.00354       36.78872       53.87551
N         40.15290       34.20163       55.49957
C         39.83072       33.55919       56.77265
C         40.86643       32.51771       57.14679
O         41.42430       31.86638       56.27730
C         38.44765       32.87632       56.70068
C         37.29862       33.89032       56.71264
O         38.35368       32.01213       55.59519
H         40.49516       33.60546       54.74522
H         39.80253       34.30976       57.59408
H         38.31300       32.26444       57.61843
H         38.44212       32.56055       54.77388
H         37.33754       34.47908       57.65629
H         37.35062       34.58706       55.85187
H         36.32847       33.35326       56.68296
N         41.15347       32.29866       58.45883
C         42.21163       31.39580       58.88797
C         41.70327       29.97372       58.87617
O         40.75785       29.67713       59.59560
C         42.78428       31.78713       60.28886
C         43.06814       33.31429       60.33403
C         44.05989       30.96775       60.57799
C         43.80558       33.80389       61.57515
H         40.64251       32.84840       59.16197
H         43.06169       31.51473       58.18292
H         42.04233       31.55676       61.08644
H         42.09797       33.85032       60.32906
H         43.64619       33.62732       59.43879
H         43.83808       29.88545       60.58390
H         44.84146       31.17662       59.81689
H         44.46989       31.20000       61.58126
H         43.82656       34.91404       61.55974
H         43.29430       33.46432       62.49969
H         44.85636       33.44792       61.56595
N         42.31351       29.02854       58.10979
C         41.95266       27.62587       58.17563
C         42.78957       26.94549       59.23939
O         43.66386       27.55875       59.82827
C         42.14589       26.92059       56.81821
C         41.47275       27.62456       55.67700
O         42.02859       28.74147       55.18718
O         40.55110       27.10004       55.07553
H         43.14482       29.28649       57.57075
H         40.88013       27.53107       58.46250
H         41.75456       25.88246       56.88538
H         43.22829       26.85135       56.57526
N         42.53091       25.65853       59.55453
C         43.19765       24.90789       60.60789
C         44.71601       24.74937       60.39532
O         45.43555       25.05791       61.33464
C         42.43555       23.58844       60.77021
C         42.85225       22.81846       61.97861
C         42.22941       23.05626       63.21589
C         43.84656       21.84101       61.87366
C         42.60371       22.31748       64.33847
C         44.21818       21.10349       62.99817
C         43.59772       21.34070       64.22958
H         41.75932       25.20223       59.04446
H         43.05466       25.46210       61.56555
H         42.47090       22.96233       59.85576
H         41.36190       23.85530       60.90987
H         41.45425       23.80926       63.30901
H         44.32489       21.65177       60.92012
H         42.12041       22.50110       65.28939
H         44.98453       20.34643       62.91128
H         43.88556       20.76659       65.09871
N         45.30664       24.32532       59.22950
C         46.75786       24.27546       59.03257
C         47.39290       25.65704       59.13972
O         48.45676       25.77604       59.73295
C         46.92339       23.61027       57.65725
C         45.63558       23.93586       56.93239
C         44.58913       23.90040       58.04359
H         47.26747       23.61775       59.77130
H         47.85831       23.85780       57.10504
H         46.90556       22.51108       57.82361
H         45.72023       24.97987       56.56487
H         45.40023       23.27814       56.06582
H         43.77401       24.58092       57.73752
H         44.19785       22.87849       58.22871
N         46.75944       26.75366       58.64999
C         47.27799       28.11663       58.76992
C         47.37857       28.55140       60.22592
O         48.20796       29.39045       60.54937
C         46.34965       29.11541       58.06113
C         46.05532       28.73541       56.60076
C         45.20898       29.75808       55.92497
O         44.81248       29.55365       54.66605
O         44.80580       30.74593       56.51850
H         45.84823       26.60052       58.20792
H         48.27779       28.16774       58.28092
H         46.82805       30.12036       58.08899
H         45.38379       29.17286       58.60853
H         45.47223       27.79350       56.54896
H         46.99639       28.59798       56.03641
N         46.52651       28.02671       61.14882
C         46.48671       28.38976       62.54535
H         45.42671       28.54563       62.84269
H         46.89239       27.54909       63.14590
H         47.05323       29.31890       62.75611
H         45.85815       27.31507       60.85040
Ca        42.89832       30.59696       54.30920
O         42.99790       33.62905       54.52489
H         43.18008       33.84695       55.47081
H         43.35240       34.39990       54.01588

Ca 1.0



