%chk=holoCaM-CaMKII.loop1.water2.frame122.chk
%nprocshared=20
%mem=10GB
%nosave
#b3lyp/svp scf=(tight,noincore,xqc) Test 
#IOP(5/87=12) Density=Current Pop=(MK,readradii) iop(6/33=2) iop(6/42=6)

holoCaM-CaMKII.loop1.water2.frame122 

   0  1 
C         27.42949       55.31640       64.92163
C         26.64976       55.91523       63.79044
O         25.44253       55.74380       63.74914
H         28.50935       55.56480       64.84502
H         27.04352       55.71219       65.88364
H         27.31874       54.21238       64.90571
N         27.27650       56.64761       62.83251
C         26.57187       57.26032       61.71402
C         25.95865       56.17555       60.83766
O         26.68940       55.30040       60.39311
C         27.56327       58.12450       60.91566
C         26.91751       58.99807       59.88759
O         27.62590       59.71578       59.20949
O         25.58124       59.04261       59.72956
H         28.29620       56.78681       62.91467
H         25.78852       57.93855       62.12252
H         28.32261       57.47361       60.42899
H         28.08824       58.80952       61.61727
N         24.62268       56.17038       60.55474
C         23.96369       55.09911       59.80913
C         23.53893       55.50887       58.40192
O         23.16486       54.61755       57.65133
C         22.73381       54.56227       60.58290
C         22.98762       54.15023       62.04356
C         24.08895       53.09449       62.19292
C         24.20459       52.61268       63.64591
N         25.31785       51.67615       63.79335
H         24.05994       56.94906       60.90177
H         24.68326       54.26531       59.66368
H         22.32275       53.68566       60.03551
H         21.94505       55.34710       60.60073
H         22.03197       53.74777       62.44694
H         23.25115       55.04601       62.64289
H         25.05814       53.53608       61.88045
H         23.86330       52.22150       61.54347
H         23.25566       52.11253       63.94243
H         24.36606       53.47478       64.32865
H         26.21995       52.16248       63.58260
H         25.34558       51.32691       64.77831
H         25.19683       50.86349       63.14641
N         23.56824       56.80257       57.95850
C         23.26124       57.17950       56.57449
C         24.43013       57.90826       55.89578
O         24.29728       58.26411       54.73322
C         21.93253       57.96400       56.49890
C         21.91539       59.31007       57.16806
O         20.89154       59.97377       57.14010
O         23.00564       59.80565       57.78040
H         23.81298       57.55005       58.61969
H         23.08223       56.26596       55.96554
H         21.13350       57.33491       56.95140
H         21.67091       58.11319       55.42788
N         25.62471       58.10368       56.53089
C         26.81108       58.66202       55.89645
C         26.71163       60.13334       55.55201
O         26.91518       60.48421       54.39879
H         25.74994       57.76058       57.49128
H         27.05875       58.06250       54.99313
H         27.66260       58.56167       56.60334
N         26.44572       61.05551       56.51980
C         26.43149       62.50318       56.29768
C         27.31465       63.26691       57.30010
O         27.24246       64.48775       57.32902
C         24.97547       63.01539       56.28779
C         24.19642       62.81750       57.55475
O         24.74807       62.23518       58.62976
O         23.03497       63.18608       57.60544
H         26.22089       60.70594       57.45925
H         26.81806       62.74884       55.28384
H         24.43568       62.48966       55.47046
H         24.97930       64.10085       56.04688
N         28.21508       62.62910       58.10565
C         29.10805       63.31536       59.03390
C         28.45539       63.81628       60.30946
O         29.18169       64.36909       61.12672
H         28.35602       61.61984       57.99377
H         29.62511       64.14765       58.50911
H         29.88756       62.59428       59.36369
N         27.12907       63.65298       60.58136
C         26.50675       64.07689       61.83467
C         25.84237       62.89808       62.53803
O         25.72774       61.82729       61.95200
C         25.49062       65.21896       61.57358
C         26.16590       66.47913       61.00947
O         24.45803       64.79335       60.72117
H         26.53248       63.20105       59.88091
H         27.27997       64.46664       62.53331
H         25.02704       65.51659       62.53908
H         24.80905       64.75626       59.79370
H         26.93632       66.85139       61.71668
H         26.64863       66.26787       60.03137
H         25.40718       67.27699       60.85998
N         25.42122       63.01896       63.82846
C         24.75925       61.95912       64.58881
C         23.45517       62.51789       65.13389
O         23.48178       63.57008       65.76290
C         25.67153       61.44108       65.74472
C         27.02822       60.93952       65.17939
C         24.95716       60.30501       66.51464
C         28.02024       60.48509       66.25464
H         25.60473       63.91186       64.31627
H         24.54685       61.07889       63.93956
H         25.87082       62.27939       66.44875
H         27.51781       61.76939       64.62770
H         26.85967       60.10121       64.46728
H         25.55486       59.95369       67.37837
H         23.99431       60.65330       66.93521
H         24.75920       59.44052       65.84354
H         28.98052       60.20300       65.77382
H         28.21273       61.30873       66.97436
H         27.65442       59.59352       66.80249
N         22.28282       61.84381       64.98202
C         21.00613       62.33185       65.49625
C         20.66047       61.61707       66.78597
O         21.39382       60.73264       67.19757
C         19.89076       62.13824       64.43487
C         20.22661       62.86136       63.13220
O         19.72407       60.76950       64.17153
H         22.30603       60.91152       64.54620
H         21.08081       63.41313       65.74814
H         18.93968       62.55384       64.83735
H         18.88738       60.66987       63.64650
H         21.14913       62.42683       62.69904
H         19.40296       62.72569       62.39898
H         20.36877       63.94706       63.31231
N         19.55860       61.96330       67.50145
C         19.16432       61.26501       68.72331
C         18.86841       59.80180       68.40175
O         19.21877       58.92477       69.17726
C         17.94325       61.96898       69.36642
C         17.57221       61.35813       70.72318
O         18.25924       63.32487       69.56562
H         18.97390       62.74159       67.15643
H         19.99911       61.32482       69.45787
H         17.07622       61.87876       68.66891
H         17.41102       63.83705       69.50149
H         16.71157       61.90897       71.15937
H         17.28487       60.29217       70.61838
H         18.42925       61.43699       71.42721
N         18.24468       59.48566       67.23372
C         17.90734       58.13294       66.80046
C         19.14672       57.26918       66.61831
O         19.21751       56.19237       67.19379
C         17.09272       58.25007       65.49111
C         16.48184       56.93716       64.98678
C         15.42879       57.25519       63.91164
C         14.71737       56.00003       63.39873
N         13.61027       56.36479       62.51262
H         17.98432       60.26638       66.61088
H         17.24060       57.67131       67.56136
H         17.69624       58.71467       64.67927
H         16.25055       58.93844       65.72472
H         15.96560       56.43016       65.83018
H         17.27635       56.26547       64.59318
H         15.89519       57.79381       63.05712
H         14.66221       57.91935       64.36991
H         14.30902       55.42408       64.25852
H         15.44411       55.35800       62.85417
H         12.89881       56.91939       63.04413
H         13.95803       56.92921       61.70390
H         13.15307       55.49598       62.15422
N         20.15759       57.68695       65.81132
C         21.35327       56.89972       65.50786
C         22.12979       56.62090       66.78328
O         22.33495       55.45983       67.10844
C         22.20606       57.62254       64.43289
C         21.37872       57.79000       63.13462
C         22.06621       58.56962       62.06443
O         22.53326       59.80155       62.31705
O         22.10056       58.13958       60.92427
H         20.05522       58.61872       65.39213
H         21.04791       55.92525       65.06323
H         23.12240       57.03438       64.21085
H         22.52149       58.61497       64.81821
H         20.45268       58.35469       63.33479
H         21.08432       56.79222       62.74296
N         22.53620       57.64306       67.58425
C         23.18008       57.46006       68.86960
H         24.15918       57.98126       68.87491
H         22.53695       57.90363       69.66082
H         23.34040       56.39005       69.11703
H         22.34544       58.60443       67.28948
Ca        23.34877       60.95903       60.58609
O         21.94301       63.51550       60.31377
H         22.36020       63.58950       61.20818
H         21.00570       63.79816       60.45209
O         20.28081       60.74447       60.19325
H         19.94539       60.16711       60.92393
H         19.59776       60.66389       59.48182

Ca 1.0



