%chk=holoCaM-CaMKII.loop1.water2.frame432.chk
%nprocshared=20
%mem=10GB
%nosave
#b3lyp/svp scf=(tight,noincore,xqc) Test 
#IOP(5/87=12) Density=Current Pop=(MK,readradii) iop(6/33=2) iop(6/42=6)

holoCaM-CaMKII.loop1.water2.frame432 

   0  1 
C         91.33764       76.46241       30.17437
C         92.75513       76.47364       30.66698
O         93.01704       75.84597       31.67657
H         90.67336       76.89961       30.94830
H         91.22459       77.04683       29.23727
H         91.02542       75.41525       29.97427
N         93.72340       77.13676       29.97359
C         95.14701       77.17216       30.31970
C         95.42002       78.11258       31.51620
O         95.96901       79.18799       31.32519
C         95.92367       77.56317       29.02905
C         97.41127       77.39923       29.11975
O         97.99115       77.08736       30.28720
O         98.09952       77.56723       28.12746
H         93.43403       77.58527       29.08978
H         95.49182       76.14104       30.55438
H         95.67162       78.59763       28.71088
H         95.60123       76.87071       28.22359
N         95.04975       77.75764       32.78440
C         95.17050       78.59639       33.98764
C         96.59837       78.89390       34.45131
O         96.72646       79.65987       35.39719
C         94.45252       77.88536       35.17050
C         92.91567       77.89286       35.06991
C         92.34782       79.27172       35.46563
C         90.81436       79.30897       35.54111
N         90.19111       79.20959       34.22241
H         94.62213       76.83655       32.90705
H         94.68773       79.57570       33.78767
H         94.71309       78.34100       36.15088
H         94.82463       76.83660       35.20844
H         92.52971       77.16050       35.81224
H         92.58537       77.56614       34.06152
H         92.70334       80.07142       34.78392
H         92.72051       79.50297       36.48841
H         90.51710       80.27958       35.99757
H         90.44451       78.49625       36.20569
H         90.51866       79.99692       33.61641
H         90.41361       78.29440       33.77218
H         89.15422       79.28508       34.33498
N         97.70293       78.33118       33.89024
C         99.07083       78.58034       34.37903
C         99.93732       79.30805       33.34869
O        101.08068       79.60832       33.66383
C         99.72419       77.27467       34.92693
C         99.81189       76.14113       33.94286
O        100.25328       75.05372       34.27587
O         99.30465       76.32265       32.72218
H         97.55509       77.69950       33.09764
H         99.04429       79.27064       35.25022
H         99.10874       76.92072       35.78318
H        100.74119       77.50386       35.31184
N         99.44218       79.70871       32.14138
C        100.16479       80.56686       31.21447
C        101.39494       79.92882       30.62079
O        102.47119       80.49849       30.73281
H         98.47468       79.47702       31.88442
H        100.43092       81.51869       31.72584
H         99.48959       80.81985       30.36870
N        101.29705       78.75492       29.94045
C        102.41632       78.12164       29.24576
C        102.08128       77.82596       27.77474
O        102.88631       77.18567       27.11270
C        102.87887       76.87320       30.03322
C        101.87741       75.76841       30.15821
O        100.79298       75.84668       29.61789
O        102.18423       74.67069       30.87347
H        100.37961       78.28663       29.92226
H        103.30495       78.79065       29.24438
H        103.15172       77.20079       31.06042
H        103.79056       76.45413       29.55645
N        100.94230       78.30272       27.17895
C        100.60631       78.09288       25.77280
C        100.11444       76.69454       25.42754
O         99.81935       76.46402       24.26365
H        100.31320       78.91937       27.71052
H        101.48211       78.36233       25.14281
H         99.77695       78.78177       25.50357
N         99.99509       75.71646       26.36559
C         99.56027       74.35007       26.09426
C         98.39234       73.96005       27.00005
O         98.46805       74.15115       28.20517
C        100.76371       73.38450       26.27529
C        101.74210       73.52828       25.10545
O        101.47035       73.63336       27.46307
H        100.26340       75.92956       27.32887
H         99.21793       74.22523       25.04311
H        100.40975       72.32835       26.25616
H        100.83451       73.54027       28.21157
H        102.14941       74.55964       25.05061
H        102.58632       72.81734       25.22841
H        101.23047       73.29123       24.14710
N         97.30579       73.31916       26.47588
C         96.19975       72.79549       27.27572
C         96.43023       71.30647       27.47493
O         96.58086       70.58788       26.49573
C         94.83048       73.05599       26.56906
C         94.58463       74.57246       26.38234
C         93.67046       72.41529       27.36491
C         93.34488       74.89089       25.53960
H         97.31477       73.08465       25.47120
H         96.16870       73.28581       28.27454
H         94.86641       72.57735       25.56480
H         95.45267       75.02201       25.85553
H         94.48369       75.05787       27.37561
H         93.81867       71.32391       27.46247
H         93.59379       72.86137       28.37942
H         92.69942       72.53238       26.84627
H         93.25960       75.98963       25.40833
H         93.43255       74.42033       24.53696
H         92.41099       74.54481       26.02555
N         96.42521       70.77175       28.73000
C         96.56185       69.34218       28.99372
C         95.18915       68.70127       29.07744
O         94.19292       69.40229       29.01925
C         97.34571       69.10764       30.31361
C         98.75997       69.68360       30.24698
O         96.65318       69.70050       31.38176
H         96.20105       71.38936       29.52222
H         97.10183       68.85155       28.15375
H         97.42571       68.01067       30.49010
H         97.04198       69.34016       32.22015
H         99.28981       69.48315       31.20376
H         99.33198       69.21030       29.42257
H         98.72076       70.78127       30.09036
N         95.05855       67.35434       29.20670
C         93.76177       66.69671       29.36289
C         93.09542       67.16451       30.64752
O         91.92418       67.51343       30.62646
C         93.90385       65.15622       29.37162
C         94.43260       64.62552       28.03374
O         94.75301       64.74464       30.41344
H         95.91640       66.78206       29.21364
H         93.10239       66.94787       28.50032
H         92.87876       64.73481       29.51457
H         94.37594       63.90503       30.78525
H         93.75867       64.93373       27.20561
H         95.45370       65.00392       27.82102
H         94.46973       63.51631       28.05885
N         93.82595       67.24456       31.79491
C         93.31026       67.70114       33.08409
C         92.63681       69.05555       32.95727
O         91.48541       69.18198       33.35147
C         94.47256       67.79749       34.10296
C         95.05909       66.41485       34.45410
C         96.30299       66.49287       35.35583
C         97.53467       67.05232       34.61770
N         98.71815       67.03065       35.47648
H         94.82604       67.00541       31.72886
H         92.55636       66.97735       33.46684
H         94.11220       68.26124       35.04791
H         95.24941       68.46111       33.67359
H         95.33421       65.83760       33.54725
H         94.26719       65.84406       34.98595
H         96.54749       65.45738       35.67804
H         96.08122       67.09569       36.26324
H         97.35549       68.09539       34.28709
H         97.73311       66.42939       33.71627
H         99.53979       67.38500       34.93476
H         98.56886       67.64685       36.30793
H         98.91984       66.05352       35.79050
N         93.29532       70.11189       32.41028
C         92.71408       71.44527       32.29262
C         91.44563       71.41662       31.45703
O         90.39929       71.79036       31.96836
C         93.73898       72.42948       31.69410
C         94.93098       72.64429       32.64407
C         95.91586       73.61625       32.07501
O         96.21681       74.74330       32.74653
O         96.46948       73.37803       31.01537
H         94.25135       69.95148       32.06628
H         92.44744       71.81620       33.30852
H         93.24208       73.40552       31.53304
H         94.09324       72.05552       30.70853
H         95.46271       71.69038       32.83475
H         94.55884       73.03522       33.61595
N         91.46262       70.97332       30.17079
C         90.28600       70.89902       29.32871
H         89.37185       71.26352       29.84238
H         90.44648       71.51222       28.41765
H         90.11929       69.84357       29.02622
H         92.34966       70.66148       29.76489
Ca        98.71653       75.07075       30.99637
O        101.02494       72.03524       30.20371
H        101.17615       71.37408       30.92311
H        101.25704       71.55138       29.37147
O         99.07110       72.24791       32.74858
H         98.40240       72.50684       33.43106
H         99.92325       72.62896       33.07846

Ca 1.0



