%chk=holoCaM.loop4.water3.frame67.chk
%nprocshared=20
%mem=10GB
%nosave
#b3lyp/svp scf=(tight,noincore,xqc) Test 
#IOP(5/87=12) Density=Current Pop=(MK,readradii) iop(6/33=2) iop(6/42=6)

holoCaM.loop4.water3.frame67 

   -3  1 
C         95.64840        2.81668       18.16844
C         95.53790        3.62685       19.42935
O         95.35630        4.83249       19.36266
H         96.63843        2.31248       18.13598
H         94.85357        2.04079       18.15180
H         95.54409        3.45677       17.26763
N         95.64596        3.00296       20.63112
C         95.56535        3.67656       21.92595
C         96.64277        4.74976       22.07446
O         97.82109        4.42969       22.00995
C         95.65112        2.59915       23.04073
C         95.97023        3.12662       24.41011
O         95.31944        4.16253       24.95237
O         96.93238        2.67511       25.01000
H         95.79184        1.98053       20.61340
H         94.57369        4.16924       22.02111
H         96.46208        1.87700       22.79621
H         94.69519        2.03390       23.05611
N         96.28004        6.04943       22.32462
C         97.22736        7.14107       22.57868
C         97.09428        7.71708       23.99377
O         97.93171        8.53378       24.35219
C         97.06033        8.30585       21.54737
C         95.64198        8.93544       21.61971
C         97.39089        7.82514       20.12702
C         95.46640       10.22073       20.81329
H         95.27510        6.26696       22.36520
H         98.26601        6.75081       22.50466
H         97.80181        9.09268       21.81196
H         95.39546        9.19363       22.67186
H         94.90818        8.20222       21.25428
H         98.41556        7.39922       20.09955
H         96.66949        7.05133       19.79578
H         97.36469        8.66687       19.40597
H         96.16989       10.99904       21.17604
H         95.61919       10.04949       19.72992
H         94.42795       10.59379       20.95206
N         96.06377        7.38989       24.83038
C         95.87655        7.96497       26.15532
C         95.91982        6.91453       27.25297
O         96.79190        7.00519       28.10671
C         94.62115        8.87295       26.23072
C         93.20539        8.49314       25.79561
O         92.81554        7.38816       25.10904
O         92.34642        9.33628       26.00105
H         95.36153        6.73363       24.50933
H         96.72080        8.65419       26.38609
H         94.85814        9.77519       25.62408
H         94.55739        9.21504       27.28801
N         95.01935        5.90038       27.30847
C         94.99528        4.88960       28.35428
C         93.65051        4.81370       29.05120
O         93.51023        3.97788       29.93231
H         94.31773        5.83313       26.57135
H         95.78180        5.07338       29.11739
H         95.19638        3.90045       27.88976
N         92.60749        5.62685       28.70667
C         91.28723        5.54576       29.31893
C         90.67507        4.15336       29.19978
O         90.17293        3.66158       30.20129
C         90.34116        6.65627       28.78759
C         90.09210        6.72819       27.30035
O         90.64908        5.98279       26.51486
O         89.26163        7.67498       26.82534
H         92.74161        6.34034       27.97943
H         91.39089        5.76135       30.40680
H         90.77050        7.63910       29.08043
H         89.36147        6.54878       29.30049
N         90.73059        3.43383       28.04204
C         90.18898        2.08865       27.90539
C         89.20764        1.94878       26.75671
O         88.76517        0.83372       26.52467
H         91.23224        3.82281       27.23384
H         89.68776        1.74890       28.83687
H         91.03823        1.39974       27.70808
N         88.83677        3.00885       25.97943
C         87.96674        2.89144       24.81221
C         88.73213        3.30576       23.56769
O         89.89093        3.68344       23.67249
C         86.72963        3.79995       24.97649
C         85.85734        3.42092       26.17671
C         84.61254        4.27408       26.19682
N         84.35146        5.10356       27.23264
O         83.82839        4.21498       25.26043
H         89.20006        3.94617       26.19020
H         87.62671        1.84325       24.66490
H         86.09818        3.71726       24.06758
H         87.05280        4.86079       25.07628
H         86.44109        3.55464       27.11273
H         85.55148        2.35503       26.10153
H         84.99758        5.17423       28.03134
H         83.49901        5.68364       27.23144
N         88.11833        3.29099       22.34743
C         88.75494        3.78227       21.13532
C         88.04213        5.05665       20.71897
O         86.87513        5.01332       20.35774
C         88.81137        2.67766       20.03361
C         87.43451        2.14503       19.59317
C         89.58906        3.16293       18.80212
H         87.13991        2.97959       22.28641
H         89.81049        4.04827       21.35436
H         89.37365        1.81728       20.45988
H         86.82246        2.93137       19.10806
H         87.56757        1.32647       18.85409
H         86.87402        1.72075       20.44983
H         89.08200        4.02770       18.32507
H         90.61753        3.45482       19.09487
H         89.67235        2.34909       18.05076
N         88.68690        6.25555       20.80433
C         88.06542        7.51969       20.41263
C         87.86181        7.51047       18.89952
O         88.36214        6.60453       18.24651
C         89.01875        8.67496       20.84105
C         88.50170       10.09469       20.83959
N         89.34600       11.10375       21.15730
O         87.33426       10.34907       20.59926
H         89.64723        6.26731       21.17757
H         87.10169        7.61165       20.96001
H         89.93193        8.62065       20.21190
H         89.32047        8.50067       21.89142
H         90.33384       10.91250       21.38237
H         89.01340       12.07893       21.17916
N         87.15098        8.47409       18.25480
C         87.14081        8.57122       16.79900
C         88.52125        8.98103       16.28664
O         88.83173        8.69361       15.13949
C         86.01818        9.51620       16.31486
C         86.17094       10.93331       16.81808
C         87.14971       11.78524       16.28072
C         85.33167       11.41339       17.83840
C         87.29605       13.08667       16.76524
C         85.48893       12.71133       18.33061
C         86.47255       13.55095       17.79944
O         86.61843       14.79785       18.28953
H         86.61589        9.15312       18.80196
H         86.89245        7.56318       16.39482
H         85.06832        9.08585       16.70382
H         85.93816        9.51820       15.20626
H         87.79861       11.44701       15.48358
H         84.56935       10.77606       18.26966
H         88.05654       13.72954       16.34120
H         84.84810       13.06182       19.12957
H         87.29552       15.40377       17.95627
N         89.39307        9.68203       17.08117
C         90.74617       10.05052       16.66113
C         91.67708        8.83942       16.62871
O         92.80751        8.97909       16.18287
C         91.36268       11.09377       17.62473
C         90.55760       12.40019       17.67812
C         91.20759       13.40370       18.58617
O         92.33392       13.81081       18.34956
O         90.54241       13.87385       19.65854
H         89.07773        9.97884       18.01488
H         90.68878       10.50782       15.64806
H         92.39081       11.33761       17.27505
H         91.43400       10.66150       18.64850
H         89.53635       12.19656       18.05701
H         90.48222       12.83666       16.65894
N         91.28159        7.63352       17.12493
C         92.11034        6.44050       17.19350
C         91.52204        5.31737       16.34550
O         92.13259        4.25836       16.28553
C         92.16077        5.96047       18.66034
C         92.67541        7.01841       19.64940
C         92.54833        6.56058       21.08350
O         92.15584        5.43807       21.35832
O         92.82448        7.41615       22.08327
H         90.34599        7.54749       17.52062
H         93.13805        6.65301       16.82535
H         92.78473        5.04402       18.74131
H         91.12069        5.70762       18.96122
H         92.06567        7.93812       19.54766
H         93.73173        7.27256       19.42027
N         90.33634        5.45172       15.68084
C         89.75417        4.37270       14.91565
H         88.78351        4.69948       14.48376
H         90.43461        4.08205       14.08884
H         89.56782        3.49913       15.57582
H         89.80401        6.32962       15.71963
Ca        93.50077        5.34416       24.39938
O         92.42409        2.46723       25.22738
H         92.29562        1.49934       25.06442
H         93.03972        2.50999       26.00180
O         92.14885        2.55355       22.10732
H         92.37686        2.73766       21.16182
H         92.28085        1.57814       22.20985
O         90.38574        7.22597       23.78609
H         89.45856        7.02662       24.06728
H         90.50470        8.18986       23.98286

Ca 1.0



