%chk=holoCaM.loop3.water3.frame242.chk
%nprocshared=20
%mem=10GB
%nosave
#b3lyp/svp scf=(tight,noincore,xqc) Test 
#IOP(5/87=12) Density=Current Pop=(MK,readradii) iop(6/33=2) iop(6/42=6)

holoCaM.loop3.water3.frame242 

   0  1 
C         46.84201       81.47987       42.68609
C         46.14473       82.77245       42.39983
O         45.81028       83.03565       41.25594
H         47.83854       81.68759       43.12886
H         46.23676       80.88803       43.40478
H         46.97439       80.89051       41.75456
N         45.86696       83.62674       43.41654
C         45.16035       84.88443       43.22006
C         46.05122       85.86662       42.46766
O         47.06443       86.27242       43.02227
C         44.75180       85.41087       44.60545
C         43.87171       86.60357       44.58836
O         43.56256       87.15874       43.55118
O         43.39209       87.04551       45.75530
H         46.12917       83.33662       44.37268
H         44.22842       84.66953       42.64854
H         45.65153       85.63737       45.21838
H         44.17845       84.61178       45.12009
N         45.77061       86.24796       41.18207
C         46.72920       86.98220       40.35165
C         46.56632       88.49229       40.37626
O         47.47332       89.14634       39.87801
C         46.76590       86.44044       38.90591
C         47.25436       84.98091       38.71628
C         48.69503       84.72750       39.22192
C         48.76099       84.27192       40.69133
N         50.12468       84.31498       41.21089
H         44.93746       85.85108       40.72781
H         47.74523       86.86827       40.77356
H         47.46216       87.07703       38.31578
H         45.75750       86.54965       38.44825
H         47.26847       84.83907       37.61308
H         46.54736       84.22927       39.12276
H         49.30115       85.64093       39.03772
H         49.15223       83.90020       38.63713
H         48.35988       83.23952       40.76474
H         48.14634       84.89051       41.34272
H         50.47070       85.30287       41.19722
H         50.11821       83.98383       42.20361
H         50.75453       83.70486       40.64433
N         45.52171       89.13280       40.97737
C         45.54872       90.57992       41.21719
C         45.54154       90.88078       42.71772
O         45.58623       92.05000       43.07568
C         44.43900       91.31771       40.43174
C         43.04363       91.10513       40.92720
O         42.10871       91.64130       40.35457
O         42.81622       90.38409       42.03201
H         44.72752       88.58263       41.33548
H         46.49506       91.01285       40.82828
H         44.50123       91.01506       39.36365
H         44.63103       92.41195       40.48651
N         45.51727       89.88135       43.65542
C         45.54865       90.11819       45.08741
C         44.32313       90.86214       45.55430
O         44.46386       91.95594       46.08085
H         45.51283       88.89489       43.36620
H         46.47356       90.68028       45.34008
H         45.58649       89.14278       45.62123
N         43.08291       90.31835       45.38792
C         41.84229       90.99957       45.76158
C         41.03914       90.25737       46.83197
O         40.01127       90.77453       47.24738
C         41.02846       91.29960       44.47516
C         40.32161       90.12055       43.74479
N         38.97751       89.90430       44.25928
O         41.04522       88.92026       43.81113
H         43.03009       89.39738       44.94019
H         42.09655       91.98855       46.20072
H         41.72914       91.78328       43.76508
H         40.26577       92.07690       44.69755
H         38.44471       90.80290       44.21823
H         38.49383       89.26488       43.59148
N         41.44146       89.04982       47.32667
C         40.73678       88.28502       48.34445
C         40.07232       87.03682       47.78197
O         39.52658       86.27198       48.56171
H         42.29674       88.62652       46.96756
H         39.93651       88.88814       48.82438
H         41.46752       88.00770       49.13518
N         39.98041       86.82760       46.43517
C         39.14955       85.79415       45.82143
C         39.88504       85.10116       44.68690
O         40.51032       85.77059       43.87804
C         37.89620       86.48673       45.25814
C         37.02210       86.99442       46.38148
C         37.04635       88.34265       46.77577
C         36.17821       86.09918       47.05868
C         36.24229       88.78506       47.83101
C         35.36388       86.54540       48.10262
C         35.39521       87.89111       48.49434
O         34.61900       88.33414       49.50382
H         40.38492       87.52473       45.79886
H         38.80312       85.03392       46.55552
H         37.29095       85.79746       44.62909
H         38.21908       87.31348       44.59909
H         37.69775       89.04855       46.28533
H         36.14412       85.05623       46.76874
H         36.27850       89.82412       48.13398
H         34.71119       85.84381       48.60637
H         34.01562       87.74853       49.98340
N         39.73777       83.75467       44.50653
C         40.31038       83.02061       43.38024
C         39.17047       82.60598       42.46033
O         38.18103       82.07924       42.94643
C         41.07769       81.74624       43.84480
C         42.03157       82.02864       45.02880
C         41.85290       81.15373       42.64296
C         42.68337       80.75590       45.58069
H         39.13086       83.23418       45.15690
H         41.03113       83.66270       42.83009
H         40.32857       81.00529       44.20363
H         41.44460       82.46507       45.86485
H         42.81567       82.75440       44.73267
H         42.34201       80.19413       42.89637
H         41.17647       80.93923       41.79373
H         42.63183       81.86922       42.29561
H         41.90222       80.01804       45.86707
H         43.36872       80.29296       44.84307
H         43.28048       81.00296       46.48218
N         39.27520       82.75623       41.11025
C         38.24189       82.33898       40.17105
C         38.72815       81.14795       39.37219
O         39.86608       80.74312       39.52386
C         37.87783       83.51413       39.24259
O         38.98393       83.91564       38.47541
H         40.15200       83.11039       40.72039
H         37.32684       82.02196       40.71325
H         37.48221       84.36425       39.84375
H         37.06574       83.22447       38.54407
H         39.34598       84.74440       38.88327
N         37.89499       80.52226       38.49761
C         38.33351       79.42484       37.64171
C         39.41013       79.91031       36.68855
O         40.42191       79.23960       36.53487
C         37.14667       78.86824       36.85240
H         36.92193       80.85393       38.42531
H         38.72277       78.58640       38.26285
H         37.47823       78.01597       36.22100
H         36.37588       78.49300       37.56034
H         36.69360       79.64845       36.20598
N         39.27281       81.11511       36.06426
C         40.26179       81.69567       35.16125
C         41.64328       81.74233       35.79112
O         42.58211       81.23345       35.19579
C         39.83048       83.11715       34.76886
H         38.42481       81.66703       36.27185
H         40.31139       81.08313       34.23388
H         39.76207       83.77079       35.66622
H         40.56025       83.56333       34.06088
H         38.83365       83.09400       34.27928
N         41.83081       82.32600       37.00704
C         43.12777       82.41159       37.67937
C         43.69771       81.01058       37.86744
O         44.78271       80.74440       37.36793
C         42.98521       83.19717       39.01553
C         42.57682       84.67149       38.74223
C         42.19931       85.47847       39.96221
O         41.32857       85.08458       40.71167
O         42.68792       86.71707       40.15289
H         40.99906       82.70362       37.47969
H         43.83796       82.98288       37.03990
H         43.94595       83.19164       39.56757
H         42.22213       82.68902       39.64295
H         41.67935       84.68746       38.09775
H         43.39091       85.18606       38.18658
N         42.99229       80.04220       38.51115
C         43.45359       78.67251       38.60357
H         44.41475       78.62375       39.15525
H         42.69942       78.05305       39.13580
H         43.58765       78.24897       37.58377
H         42.07915       80.27062       38.91375
Ca        41.74940       88.01249       41.78964
O         38.87619       86.91478       41.02669
H         38.11233       86.32038       41.23331
H         38.65094       87.31389       40.14891
O         41.24357       88.44154       38.43342
H         40.80994       87.56151       38.29912
H         40.56780       88.97592       38.91881
O         39.02224       90.00062       40.92374
H         38.73991       90.82402       40.45401
H         40.00509       90.08580       40.99865

Ca 1.0



