%chk=holoCaM-CaMKII.loop1.water2.frame89.chk
%nprocshared=20
%mem=10GB
%nosave
#b3lyp/svp scf=(tight,noincore,xqc) Test 
#IOP(5/87=12) Density=Current Pop=(MK,readradii) iop(6/33=2) iop(6/42=6)

holoCaM-CaMKII.loop1.water2.frame89 

   0  1 
C         13.65859       43.19615       74.79284
C         12.82114       43.25215       76.03675
O         12.96468       42.39174       76.88697
H         14.34112       42.32011       74.81201
H         12.99648       43.11533       73.90509
H         14.26732       44.12162       74.70922
N         11.94243       44.27669       76.20714
C         11.06762       44.47259       77.36535
C          9.92544       43.44411       77.42594
O          8.79256       43.77180       77.09991
C         10.54098       45.93057       77.32264
C          9.50199       46.19666       78.37012
O          8.40149       46.58096       78.02336
O          9.75720       45.99993       79.67461
H         11.93301       44.99695       75.46682
H         11.65506       44.39483       78.30452
H         10.08712       46.13776       76.32866
H         11.39701       46.62770       77.45840
N         10.14751       42.18380       77.89218
C          9.10923       41.16372       78.01611
C          8.09492       41.40485       79.13089
O          7.15671       40.62217       79.19398
C          9.75852       39.77997       78.22188
C         10.66463       39.28097       77.07065
C          9.93250       39.11245       75.72357
C          9.93014       40.37558       74.83486
N          9.07634       40.17459       73.66505
H         11.10284       41.92096       78.14623
H          8.50610       41.12977       77.09301
H          8.95508       39.02173       78.35071
H         10.35410       39.79509       79.16272
H         10.98573       38.26750       77.39738
H         11.58851       39.88485       76.94270
H          8.90440       38.73611       75.91944
H         10.46237       38.33570       75.13068
H         10.97329       40.58826       74.51225
H          9.58479       41.28491       75.34879
H          9.12131       41.02242       73.05497
H          9.38931       39.33939       73.12031
H          8.08550       40.04116       73.97598
N          8.18290       42.42561       80.03501
C          7.16924       42.62990       81.07835
C          6.39531       43.93144       80.90410
O          5.50300       44.18379       81.70325
C          7.77423       42.45514       82.49056
C          8.87672       43.39714       82.88908
O          9.28629       44.26331       82.13503
O          9.42395       43.27218       84.11300
H          8.98033       43.07405       79.98530
H          6.38600       41.84466       81.01288
H          8.17161       41.41980       82.56692
H          6.95682       42.55417       83.23842
N          6.61290       44.76821       79.85115
C          5.79856       45.94322       79.58394
C          5.87259       46.95985       80.69352
O          4.82989       47.34711       81.20003
H          7.34794       44.54541       79.16852
H          4.74500       45.63366       79.41271
H          6.13718       46.42440       78.64714
N          7.07628       47.43131       81.12661
C          7.21480       48.42682       82.18448
C          7.96932       49.67745       81.73616
O          7.96944       50.63734       82.49509
C          7.83298       47.78642       83.45038
C          9.22625       47.22383       83.31503
O          9.83720       47.27065       82.26272
O          9.80516       46.64310       84.38256
H          7.92137       47.03818       80.70698
H          6.20390       48.78109       82.48084
H          7.16968       46.95341       83.76964
H          7.84746       48.54292       84.26320
N          8.63479       49.75685       80.54388
C          9.28605       50.96977       80.06903
C         10.79825       50.89203       80.10295
O         11.42415       51.81908       79.60914
H          8.69702       48.93638       79.92649
H          9.00039       51.85568       80.67717
H          8.93668       51.16179       79.03177
N         11.45806       49.88547       80.74965
C         12.90997       49.86003       80.92513
C         13.48031       48.46861       80.56211
O         12.80264       47.96323       79.46715
C         13.24578       50.23439       82.39135
C         12.83673       51.67824       82.71915
O         12.64954       49.33872       83.29853
H         10.91222       49.15303       81.21513
H         13.38823       50.60497       80.25161
H         14.34283       50.18516       82.54111
H         11.67386       49.52284       83.33221
H         13.12117       51.92016       83.76432
H         13.35532       52.38368       82.03613
H         11.73988       51.81987       82.61460
N         14.92213       48.51623       80.25346
C         15.47192       47.20413       79.81527
C         16.60601       46.77657       80.74521
O         17.63727       47.43385       80.78070
C         15.93292       47.28661       78.31693
C         14.72533       47.59367       77.38661
C         16.62932       45.98351       77.87136
C         15.07147       47.83725       75.91876
H         15.44254       48.90285       81.07270
H         14.68947       46.41334       79.87580
H         16.66806       48.11666       78.22801
H         14.24304       48.53400       77.71708
H         13.99114       46.75791       77.44504
H         17.52391       45.78349       78.49252
H         15.93691       45.11833       77.94453
H         17.00146       46.06281       76.83070
H         15.75580       48.70687       75.83106
H         15.52506       46.94762       75.44141
H         14.13557       48.07013       75.36505
N         16.45460       45.68491       81.55019
C         17.48236       45.20595       82.47189
C         18.67125       44.63428       81.71439
O         18.62981       44.52997       80.49919
C         16.91396       44.10910       83.42053
C         15.77955       44.62711       84.30407
O         16.44765       43.02441       82.66648
H         15.55401       45.19708       81.52911
H         17.82346       46.05978       83.09791
H         17.72989       43.77087       84.09896
H         16.43089       42.23423       83.26781
H         16.12449       45.48460       84.91776
H         14.91905       44.93467       83.68512
H         15.43459       43.81817       84.98297
N         19.77616       44.22878       82.39562
C         20.92194       43.58017       81.76586
C         20.51576       42.20777       81.24030
O         20.77879       41.90242       80.08638
C         22.07551       43.45244       82.79190
C         23.34460       42.87296       82.15579
O         22.37253       44.73090       83.29512
H         19.79981       44.38602       83.41491
H         21.30053       44.21960       80.93612
H         21.74127       42.78740       83.62383
H         22.77026       44.60482       84.19590
H         24.15183       42.81649       82.91639
H         23.16451       41.85079       81.76371
H         23.68921       43.52564       81.32458
N         19.85589       41.33697       82.05730
C         19.45215       39.98041       81.68114
C         18.60493       39.98689       80.41874
O         18.93390       39.26228       79.48966
C         18.70231       39.29041       82.84946
C         19.61941       39.10342       84.07784
C         18.90087       38.41006       85.24462
C         19.77761       38.31822       86.51064
N         20.97102       37.49100       86.31795
H         19.61421       41.67630       82.99939
H         20.35954       39.37010       81.47196
H         18.36335       38.28385       82.51728
H         17.80419       39.88574       83.12731
H         19.97934       40.08682       84.44134
H         20.49663       38.49846       83.76755
H         18.56967       37.39325       84.94090
H         17.99980       39.00608       85.50814
H         19.16577       37.87545       87.32744
H         20.08084       39.33991       86.83179
H         20.69747       36.52645       86.02127
H         21.61201       37.91641       85.61180
H         21.48955       37.43008       87.22414
N         17.53790       40.82364       80.29112
C         16.74179       40.93482       79.06851
C         17.63996       41.25010       77.88383
O         17.63038       40.49280       76.92326
C         15.64057       42.01258       79.21702
C         14.57324       41.58869       80.24251
C         13.48108       42.60919       80.37642
O         13.76603       43.86521       80.75147
O         12.31993       42.29470       80.18485
H         17.32446       41.44086       81.08212
H         16.23735       39.96393       78.86249
H         15.13830       42.14769       78.23607
H         16.09658       42.98645       79.50708
H         15.03088       41.44455       81.23917
H         14.12673       40.62090       79.92504
N         18.47592       42.32346       77.90575
C         19.40449       42.64061       76.83910
H         20.44204       42.59768       77.23411
H         19.33076       41.93303       75.98667
H         19.20488       43.66623       76.46681
H         18.48273       42.92947       78.73293
Ca        11.87949       46.07955       80.24411
O         12.57919       43.46027       83.45635
H         13.20708       42.70602       83.58768
H         12.06770       43.50755       84.30193
O         13.01965       46.59683       83.56617
H         13.10355       46.37578       84.52785
H         13.86705       47.06054       83.34502

Ca 1.0



