%chk=holoCaM.loop4.water3.frame282.chk
%nprocshared=20
%mem=10GB
%nosave
#b3lyp/svp scf=(tight,noincore,xqc) Test 
#IOP(5/87=12) Density=Current Pop=(MK,readradii) iop(6/33=2) iop(6/42=6)

holoCaM.loop4.water3.frame282 

   -3  1 
C         48.42890       69.71919       72.49861
C         49.70192       68.99437       72.80423
O         50.66715       69.64317       73.18126
H         47.62727       69.35215       73.17311
H         48.55639       70.81141       72.66668
H         48.13909       69.54925       71.44243
N         49.78268       67.63781       72.66460
C         50.98946       66.89480       73.01496
C         50.86857       65.42596       72.60828
O         49.89336       64.78689       72.97996
C         51.23745       66.98642       74.54310
C         52.63230       66.59921       74.93748
O         52.96577       66.57151       76.24102
O         53.48719       66.38670       74.09323
H         48.96056       67.13280       72.29859
H         51.84045       67.36280       72.47155
H         50.49371       66.35422       75.07540
H         51.11587       68.02123       74.91640
N         51.84981       64.81959       71.87644
C         51.79623       63.42608       71.42409
C         52.84826       62.57387       72.16121
O         52.89484       61.37503       71.93035
C         52.03431       63.39150       69.86461
C         51.13014       64.41591       69.12267
C         51.83159       61.98325       69.25474
C         51.49888       64.60333       67.64375
H         52.68525       65.36958       71.62916
H         50.79632       62.99477       71.65059
H         53.08797       63.70506       69.69042
H         51.25774       65.41336       69.58305
H         50.06033       64.13151       69.21564
H         50.78509       61.64255       69.40588
H         52.05347       61.97493       68.17055
H         52.52036       61.22852       69.66928
H         51.32016       63.68762       67.04707
H         50.87521       65.40960       67.20420
H         52.56631       64.90027       67.54810
N         53.74868       63.11290       73.04095
C         54.96337       62.39119       73.43132
C         55.65331       62.89227       74.71374
O         56.63560       62.26945       75.09477
C         55.95058       62.45679       72.23695
C         56.05331       63.87276       71.72067
O         56.36909       64.86863       72.56469
O         55.72248       64.13334       70.57544
H         53.72975       64.12362       73.18929
H         54.71446       61.32762       73.64629
H         55.56369       61.82078       71.41062
H         56.94622       62.05772       72.52534
N         55.22046       63.95714       75.45018
C         55.83515       64.36641       76.70913
C         57.27434       64.86691       76.63806
O         57.82048       65.12403       77.70182
H         54.37748       64.45992       75.17103
H         55.80188       63.49808       77.40227
H         55.22649       65.17811       77.16366
N         57.96891       65.02281       75.47101
C         59.38642       65.39600       75.44106
C         59.69425       66.76027       76.06256
O         60.84800       66.98736       76.39796
C         59.98157       65.28375       74.01617
C         59.39431       66.23072       73.00271
O         58.41916       67.09144       73.33593
O         59.80781       66.21522       71.85511
H         57.50441       64.80428       74.58798
H         59.91267       64.63665       76.06189
H         59.82506       64.24715       73.64594
H         61.07600       65.46895       74.06723
N         58.73101       67.70697       76.25341
C         58.95061       68.95432       76.97575
C         58.76920       70.20797       76.14093
O         58.73903       71.27807       76.73334
H         57.78165       67.52449       75.91113
H         59.96014       68.99955       77.43677
H         58.20939       68.97648       77.80322
N         58.69130       70.18162       74.77958
C         58.52730       71.37804       73.95233
C         57.29365       71.24213       73.07254
O         56.64207       70.20562       73.11634
C         59.79382       71.58602       73.09103
C         61.03572       71.84003       73.96364
C         62.26977       72.06657       73.12856
N         62.75497       71.08877       72.32820
O         62.84839       73.14141       73.18774
H         58.78657       69.28168       74.29349
H         58.38433       72.28337       74.58299
H         59.65999       72.47106       72.43227
H         59.95044       70.69385       72.44633
H         61.22284       70.97832       74.63872
H         60.84838       72.74061       74.59020
H         62.29174       70.17020       72.27571
H         63.60485       71.24694       71.76645
N         56.91307       72.25569       72.23825
C         55.75858       72.16596       71.34963
C         56.24342       72.22945       69.91334
O         56.76609       73.25693       69.50026
C         54.73733       73.30568       71.63859
C         53.51081       73.20657       70.71507
C         54.26172       73.28913       73.09703
H         57.47119       73.12353       72.21676
H         55.23476       71.19688       71.50172
H         55.23068       74.28685       71.45809
H         53.81157       73.30029       69.65536
H         52.98700       72.23755       70.85932
H         52.79761       74.03146       70.92293
H         53.55459       74.12828       73.27395
H         53.74011       72.34143       73.33074
H         55.11687       73.41324       73.79260
N         56.10382       71.15098       69.09261
C         56.47648       71.17005       67.67823
C         55.36445       71.88758       66.89835
O         54.35832       72.21389       67.50487
C         56.69173       69.69691       67.23394
C         57.41576       69.43501       65.93358
N         57.60519       68.15778       65.52934
O         57.87498       70.34463       65.26415
H         55.70810       70.28344       69.48833
H         57.44955       71.70085       67.58164
H         55.70934       69.17625       67.23256
H         57.33414       69.21250       68.00172
H         57.25123       67.37040       66.09262
H         58.11158       67.95358       64.65506
N         55.45374       72.18786       65.57259
C         54.36671       72.82690       64.82969
C         53.13824       71.92517       64.78385
O         52.04953       72.39283       65.08859
C         54.81260       73.14722       63.39039
C         53.74420       73.91473       62.64534
C         53.41730       75.23156       63.01877
C         53.06093       73.31684       61.57549
C         52.42643       75.93654       62.32805
C         52.06386       74.01952       60.89346
C         51.74505       75.33352       61.26578
O         50.78853       76.02311       60.61210
H         56.32033       71.98396       65.06904
H         54.11229       73.79208       65.32375
H         55.04575       72.19107       62.87343
H         55.74099       73.75905       63.39834
H         53.93376       75.71614       63.83847
H         53.29046       72.30166       61.27796
H         52.18731       76.95220       62.61923
H         51.53985       73.54064       60.07651
H         50.29376       75.64095       59.87314
N         53.25317       70.60903       64.42524
C         52.12457       69.67116       64.34286
C         51.34837       69.48898       65.65289
O         50.34030       68.79620       65.63960
C         52.59981       68.29516       63.81146
C         53.56382       67.55829       64.76303
C         54.00320       66.24892       64.17349
O         55.30872       66.02224       63.93186
O         53.18334       65.38052       63.91976
H         54.19420       70.27030       64.17670
H         51.41097       70.08413       63.59607
H         53.10081       68.45019       62.83036
H         51.70947       67.65106       63.63554
H         53.06500       67.35572       65.73349
H         54.46354       68.17842       64.95578
N         51.73057       70.10563       66.80325
C         51.00484       70.05911       68.06119
C         50.32537       71.39921       68.27280
O         49.11968       71.41601       68.47791
C         51.99047       69.71588       69.19178
C         52.54995       68.29927       68.98887
C         53.58018       67.90514       69.99909
O         54.11759       66.67433       69.93358
O         53.95378       68.68252       70.86071
H         52.57917       70.67337       66.80671
H         50.20469       69.28415       68.04774
H         51.47258       69.76292       70.17522
H         52.82318       70.45390       69.19588
H         53.02866       68.21449       67.99217
H         51.70651       67.58267       69.04429
N         51.01984       72.56727       68.16554
C         50.41052       73.87771       68.25709
H         49.32631       73.82741       68.48768
H         50.91836       74.46696       69.04714
H         50.53454       74.40235       67.28483
H         52.02380       72.54163       67.96111
Ca        55.94323       67.04485       72.15065
O         55.54265       68.29314       75.20839
H         55.43413       67.51266       75.80676
H         55.66148       69.06222       75.82031
O         53.67825       69.54966       73.53532
H         53.23320       70.11760       72.85891
H         53.71792       70.11342       74.34747
O         57.39387       67.13040       69.62748
H         56.69391       66.43618       69.54797
H         58.23986       66.61970       69.66630

Ca 1.0



