%chk=holoCaM.loop3.water3.frame229.chk
%nprocshared=20
%mem=10GB
%nosave
#b3lyp/svp scf=(tight,noincore,xqc) Test 
#IOP(5/87=12) Density=Current Pop=(MK,readradii) iop(6/33=2) iop(6/42=6)

holoCaM.loop3.water3.frame229 

   0  1 
C         36.14755       72.22418       21.58021
C         35.51056       72.93612       22.73182
O         35.11783       74.08410       22.58750
H         37.18303       71.93303       21.85477
H         35.56178       71.31170       21.34061
H         36.18086       72.87876       20.68404
N         35.35379       72.29206       23.91783
C         34.73371       72.91746       25.07688
C         35.65112       74.01353       25.60110
O         36.79989       73.71537       25.90230
C         34.48125       71.84571       26.15233
C         33.46968       72.23347       27.18496
O         32.77675       73.38778       27.12899
O         33.18132       71.41671       28.04040
H         35.66056       71.30766       23.97919
H         33.74089       73.30993       24.75836
H         35.43667       71.53632       26.62865
H         34.04282       70.94824       25.66599
N         35.22522       75.30193       25.72291
C         36.09686       76.40841       26.11164
C         35.84442       76.91412       27.52082
O         36.65179       77.70963       27.97547
C         35.99056       77.54453       25.07497
C         36.65075       77.12982       23.75584
C         36.47349       78.18726       22.66066
C         37.37376       77.91959       21.44032
N         37.14997       76.60391       20.83783
H         34.24610       75.50941       25.50642
H         37.15438       76.06282       26.15232
H         36.52605       78.44947       25.43723
H         34.91923       77.81096       24.92989
H         36.21861       76.17572       23.39973
H         37.73432       76.98181       23.95757
H         36.75520       79.18696       23.05714
H         35.40334       78.22248       22.35729
H         38.43945       78.00049       21.75098
H         37.17996       78.71006       20.68214
H         36.14845       76.49387       20.56029
H         37.75338       76.51780       19.98822
H         37.42712       75.84384       21.49972
N         34.82083       76.45634       28.30103
C         34.75321       76.74496       29.73711
C         34.85394       75.46430       30.56148
O         34.91802       75.56650       31.78230
C         33.52056       77.59948       30.09117
C         32.17896       76.96914       29.84525
O         31.06720       77.67159       30.13224
O         32.07629       75.83788       29.40235
H         34.10972       75.84016       27.88910
H         35.63060       77.35580       30.04065
H         33.57540       78.54327       29.50695
H         33.57628       77.86650       31.16969
N         34.92648       74.23070       29.98226
C         35.15966       73.00833       30.72108
C         34.07535       72.68722       31.72035
O         34.39391       72.55025       32.89082
H         34.88027       74.12770       28.95874
H         36.14161       73.08453       31.23866
H         35.22705       72.15857       30.00641
N         32.78818       72.47658       31.31641
C         31.75746       71.95766       32.21712
C         31.34272       70.53474       31.83332
O         30.53645       69.96245       32.56112
C         30.53832       72.91008       32.36268
C         29.68095       73.23005       31.11991
N         28.27587       73.36995       31.49739
O         29.77895       72.26948       30.12745
H         32.55998       72.60784       30.32599
H         32.17471       71.86629       33.24216
H         30.86602       73.88432       32.78608
H         29.87988       72.44326       33.12764
H         28.15516       74.19739       32.12144
H         27.69082       73.49719       30.63993
N         31.84638       69.88403       30.74039
C         31.51084       68.51586       30.37224
C         30.71713       68.41596       29.07620
O         30.37863       67.31269       28.69068
H         32.51680       70.36366       30.12637
H         30.88848       68.03636       31.15991
H         32.45078       67.92977       30.28852
N         30.30375       69.53734       28.41215
C         29.32182       69.53328       27.32882
C         29.77580       70.43863       26.19870
O         30.19012       71.55143       26.46920
C         28.00753       70.08707       27.91477
C         27.47502       69.14966       28.97280
C         27.69248       69.40779       30.33674
C         26.78046       67.98848       28.59703
C         27.22977       68.51484       31.30711
C         26.30226       67.10560       29.56973
C         26.52991       67.36433       30.92927
O         26.08400       66.51639       31.87791
H         30.57395       70.45350       28.77637
H         29.11458       68.51254       26.94187
H         27.23203       70.22538       27.12950
H         28.20538       71.08904       28.35313
H         28.23879       70.28540       30.65060
H         26.60266       67.77238       27.55072
H         27.41846       68.71682       32.35404
H         25.75963       66.21951       29.26534
H         25.59301       65.71156       31.65893
N         29.62391       70.05902       24.89257
C         29.95562       70.95002       23.78252
C         28.66108       71.43679       23.15362
O         27.97912       70.66082       22.50077
C         30.86343       70.22742       22.74011
C         32.17523       69.73864       23.40136
C         31.16046       71.14877       21.53675
C         33.02717       68.85448       22.48599
H         29.19195       69.14906       24.68126
H         30.50419       71.84059       24.15753
H         30.30936       69.33601       22.36861
H         31.92981       69.12200       24.29231
H         32.77335       70.61227       23.73387
H         31.74420       70.62203       20.75688
H         30.22168       71.46909       21.04258
H         31.71869       72.05230       21.86218
H         32.44322       67.96635       22.16123
H         33.38436       69.40505       21.59352
H         33.92194       68.50325       23.04114
N         28.25277       72.72799       23.33879
C         27.05878       73.27377       22.69952
C         27.32296       73.53501       21.22597
O         28.46063       73.42399       20.79413
C         26.62353       74.58241       23.38829
O         27.60789       75.57565       23.26501
H         28.79617       73.32660       23.97370
H         26.22708       72.54543       22.82159
H         26.39026       74.38518       24.46091
H         25.68488       74.96537       22.93569
H         28.11988       75.58908       24.11473
N         26.31194       73.89543       20.38649
C         26.54807       74.22164       18.98278
C         27.29153       75.54056       18.83357
O         28.00055       75.70851       17.85128
C         25.23098       74.29663       18.21017
H         25.34850       73.92038       20.75495
H         27.14085       73.40002       18.51985
H         24.57912       75.09775       18.61775
H         25.43088       74.50083       17.13583
H         24.70025       73.32335       18.28447
N         27.14533       76.53784       19.75539
C         27.83526       77.82196       19.66905
C         29.33204       77.61286       19.69234
O         30.02506       78.09560       18.80776
C         27.43097       78.72270       20.84579
H         26.52059       76.37652       20.56001
H         27.54005       78.34560       18.73251
H         27.94605       79.70477       20.77092
H         26.33517       78.90168       20.82806
H         27.69617       78.25700       21.81956
N         29.88621       76.86436       20.68339
C         31.31183       76.57968       20.79519
C         31.78526       75.88918       19.52956
O         32.69667       76.38990       18.88498
C         31.59117       75.72499       22.05816
C         31.17397       76.48114       23.34093
C         31.36674       75.67794       24.59111
O         32.03613       76.20978       25.62829
O         30.84260       74.58364       24.71279
H         29.24154       76.45019       21.37006
H         31.87297       77.53461       20.91136
H         32.67651       75.48974       22.11514
H         31.02785       74.76745       21.98850
H         30.10093       76.74085       23.30723
H         31.74615       77.43086       23.42109
N         31.16024       74.76946       19.07527
C         31.51202       74.14114       17.82098
H         32.56369       73.78928       17.84932
H         30.84349       73.27387       17.63247
H         31.38305       74.86618       16.98770
H         30.38026       74.37329       19.61398
Ca        31.01174       73.30979       28.52301
O         29.22528       76.85016       26.73869
H         28.62908       77.20883       26.03463
H         29.62324       77.65273       27.16061
O         27.80404       73.65241       27.16430
H         27.26986       73.79039       27.98646
H         27.22728       73.09214       26.58657
O         28.31263       75.94162       29.47716
H         29.28944       75.78702       29.44371
H         28.10737       76.01944       30.44208

Ca 1.0



