%chk=holoCaM.loop1.water2.frame423.chk
%nprocshared=20
%mem=10GB
%nosave
#b3lyp/svp scf=(tight,noincore,xqc) Test 
#IOP(5/87=12) Density=Current Pop=(MK,readradii) iop(6/33=2) iop(6/42=6)

holoCaM.loop1.water2.frame423 

   0  1 
C         -7.73682      109.12608       44.57282
C         -7.98357      110.39285       43.81748
O         -9.06982      110.94522       43.92098
H         -6.90164      109.28195       45.28600
H         -8.64535      108.82491       45.13675
H         -7.47234      108.31471       43.86237
N         -7.01763      110.89400       42.99847
C         -7.20097      112.10001       42.20901
C         -7.46354      111.67942       40.76996
O         -6.68920      110.89835       40.23358
C         -5.97128      113.02727       42.35540
C         -6.27134      114.41388       41.86182
O         -7.53418      114.71898       41.51944
O         -5.40033      115.26649       41.83195
H         -6.13864      110.36454       42.88620
H         -8.08810      112.65027       42.59379
H         -5.10764      112.58980       41.80827
H         -5.69550      113.13118       43.42695
N         -8.58231      112.10660       40.11150
C         -9.06224      111.51104       38.86434
C         -8.92823      112.41659       37.64026
O         -9.10661      111.90621       36.54280
C        -10.54132      111.09013       39.03942
C        -10.83674      110.25423       40.30119
C        -10.15766      108.88094       40.30148
C        -10.53413      108.09636       41.56765
N         -9.92852      106.76594       41.56090
H         -9.16701      112.81404       40.56488
H         -8.44970      110.61147       38.63860
H        -10.89254      110.54300       38.13769
H        -11.14922      112.01772       39.12940
H        -11.93725      110.10161       40.35341
H        -10.53767      110.82190       41.20986
H         -9.05418      109.00008       40.26675
H        -10.48985      108.31402       39.40492
H        -11.64061      107.99046       41.62755
H        -10.18880      108.65315       42.46723
H         -8.88655      106.84404       41.51974
H        -10.19725      106.26359       42.43780
H        -10.27625      106.21973       40.73934
N         -8.59727      113.73882       37.72887
C         -8.27472      114.57292       36.55955
C         -6.82788      115.08379       36.63244
O         -6.40349      115.75390       35.70111
C         -9.30060      115.72133       36.29917
C         -9.47224      116.72014       37.40355
O         -8.97275      116.42904       38.60162
O        -10.14967      117.72216       37.24385
H         -8.51239      114.14828       38.66702
H         -8.31900      113.95632       35.63519
H        -10.30071      115.28889       36.07847
H         -8.96793      116.26882       35.39069
N         -5.98530      114.73842       37.65494
C         -4.56223      115.04077       37.66719
C         -4.23050      116.50246       37.85152
O         -3.55429      117.06269       37.00069
H         -6.31938      114.14067       38.42237
H         -4.10315      114.65023       36.73200
H         -4.09193      114.50018       38.51681
N         -4.62587      117.16840       38.97380
C         -4.23190      118.54515       39.27926
C         -3.54319      118.66690       40.64794
O         -3.28773      119.78647       41.07076
C         -5.44402      119.49032       39.12530
C         -6.57673      119.27432       40.07905
O         -6.50397      118.34473       41.03914
O         -7.57752      119.96560       39.98888
H         -5.22971      116.67041       39.64336
H         -3.50101      118.91562       38.52740
H         -5.83694      119.37345       38.09203
H         -5.10052      120.54070       39.24378
N         -3.15560      117.56945       41.36963
C         -2.43619      117.64921       42.63657
C         -3.32248      117.85337       43.85393
O         -2.78274      117.87716       44.94999
H         -3.27338      116.63055       40.96508
H         -1.64635      118.43168       42.58054
H         -1.91867      116.68018       42.80323
N         -4.67439      118.00915       43.75319
C         -5.56266      118.19144       44.90177
C         -6.78035      117.26519       44.81089
O         -6.97026      116.60765       43.80174
C         -5.99613      119.67591       44.99785
C         -4.80320      120.61676       45.22021
O         -6.71454      120.07718       43.86118
H         -5.09054      118.03427       42.82363
H         -5.02202      117.93625       45.83976
H         -6.66268      119.79383       45.87893
H         -6.09092      120.10834       43.09008
H         -5.16583      121.66156       45.31867
H         -4.25932      120.33840       46.14691
H         -4.09836      120.57431       44.36236
N         -7.63630      117.15099       45.86914
C         -8.81217      116.27531       45.89732
C        -10.04577      117.10900       46.23297
O        -10.01072      117.88298       47.17835
C         -8.57086      115.11197       46.91095
C         -7.42288      114.21089       46.36734
C         -9.85014      114.27509       47.12744
C         -7.02356      113.05291       47.28237
H         -7.41977      117.68012       46.72688
H         -8.98709      115.79157       44.91020
H         -8.28133      115.54367       47.89453
H         -6.51270      114.82725       46.21367
H         -7.71939      113.78588       45.38131
H        -10.67332      114.90482       47.52040
H        -10.17405      113.79938       46.18052
H         -9.69052      113.48426       47.88717
H         -7.85519      112.33325       47.42115
H         -6.18436      112.49515       46.81400
H         -6.69061      113.43849       48.26801
N        -11.19942      116.94086       45.51970
C        -12.43176      117.68764       45.76083
C        -13.42734      116.84447       46.53731
O        -13.14168      115.70496       46.87358
C        -13.08446      118.10882       44.40811
C        -12.15736      118.97600       43.55419
O        -13.53096      116.96348       43.71045
H        -11.22624      116.20404       44.80707
H        -12.22042      118.59522       46.36726
H        -13.97622      118.73866       44.60453
H        -13.07471      116.88969       42.83313
H        -11.28008      118.37400       43.25450
H        -12.68980      119.29809       42.63317
H        -11.83975      119.87836       44.11632
N        -14.65072      117.36364       46.83159
C        -15.74300      116.59414       47.41450
C        -16.15873      115.47234       46.47502
O        -16.42590      114.37756       46.94811
C        -16.96295      117.50281       47.70876
C        -16.62724      118.55431       48.77614
O        -17.39691      118.13390       46.53049
H        -14.82932      118.34631       46.58173
H        -15.42601      116.15441       48.38727
H        -17.77766      116.85403       48.10878
H        -18.30724      118.48695       46.70936
H        -15.82099      119.23687       48.43669
H        -17.52658      119.16449       49.00114
H        -16.30014      118.05511       49.71309
N        -16.25366      115.68119       45.12799
C        -16.67365      114.64347       44.19163
C        -15.63368      113.52491       44.04611
O        -15.92723      112.54261       43.37906
C        -17.02576      115.21546       42.78805
C        -18.21101      116.21319       42.77698
C        -17.82087      117.70408       42.87661
C        -19.03601      118.64011       43.00666
N        -19.99197      118.50239       41.90774
H        -16.01577      116.60912       44.77068
H        -17.60990      114.19176       44.58895
H        -17.37400      114.33424       42.20414
H        -16.14689      115.63209       42.24740
H        -18.94738      115.92128       43.55675
H        -18.70933      116.10976       41.78943
H        -17.22788      117.97577       41.97488
H        -17.20272      117.92338       43.75683
H        -18.66155      119.68826       43.03454
H        -19.55305      118.43867       43.97104
H        -20.74051      119.22334       42.02338
H        -19.51605      118.64848       40.98873
H        -20.44804      117.56261       41.93606
N        -14.40120      113.60753       44.62564
C        -13.35727      112.59268       44.51731
C        -12.99354      112.02887       45.89185
O        -12.09547      111.20089       45.96366
C        -12.11761      113.23343       43.85264
C        -12.46190      113.82666       42.47587
C        -11.30825      114.55669       41.85214
O        -10.70213      115.56610       42.50278
O        -10.96094      114.28612       40.71702
H        -14.15697      114.44962       45.15103
H        -13.69034      111.74027       43.88584
H        -11.30520      112.48268       43.74340
H        -11.75477      114.04461       44.51333
H        -13.28004      114.56238       42.58889
H        -12.81283      113.01882       41.79737
N        -13.65149      112.40981       47.02622
C        -13.32517      111.89479       48.33724
H        -12.28354      112.16938       48.60396
H        -14.01086      112.33665       49.09409
H        -13.44590      110.79155       48.35713
H        -14.42084      113.08312       46.97950
Ca        -8.42930      116.58510       40.72321
O        -10.84792      118.68387       40.37738
H        -10.86391      119.57190       40.81391
H        -10.17379      118.78049       39.66016
O         -9.10703      119.32577       43.10547
H         -8.68611      119.25910       42.21485
H         -9.53075      120.22033       43.11105

Ca 1.0



