%chk=holoCaM.loop1.water2.frame490.chk
%nprocshared=20
%mem=10GB
%nosave
#b3lyp/svp scf=(tight,noincore,xqc) Test 
#IOP(5/87=12) Density=Current Pop=(MK,readradii) iop(6/33=2) iop(6/42=6)

holoCaM.loop1.water2.frame490 

   0  1 
C         -0.93965       78.03251       43.35400
C         -2.30476       77.65202       43.83030
O         -3.28219       78.02973       43.19811
H         -0.36038       77.11245       43.12895
H         -1.00704       78.64583       42.42976
H         -0.42031       78.61632       44.14070
N         -2.45035       76.86894       44.93601
C         -3.75832       76.42474       45.38397
C         -4.58086       77.61544       45.86900
O         -4.21139       78.24747       46.84926
C         -3.63313       75.35793       46.48643
C         -4.95785       74.72226       46.76783
O         -5.06191       73.91008       47.66650
O         -6.02904       75.03875       46.01858
H         -1.60486       76.53835       45.42664
H         -4.24293       75.93803       44.50776
H         -3.23164       75.82642       47.41193
H         -2.93866       74.55109       46.16973
N         -5.67781       78.00932       45.16851
C         -6.41198       79.23936       45.44418
C         -7.24988       79.14983       46.72400
O         -6.93394       79.85341       47.67311
C         -7.22265       79.61782       44.18050
C         -7.64290       81.09108       44.10985
C         -8.18590       81.40579       42.70010
C         -8.35615       82.90746       42.42584
N         -9.37540       83.52352       43.27115
H         -5.88616       77.49041       44.30704
H         -5.64177       80.03515       45.56374
H         -8.08832       78.93858       44.02626
H         -6.52982       79.47027       43.32113
H         -6.73440       81.71145       44.27124
H         -8.38744       81.32808       44.89877
H         -9.13928       80.86182       42.52315
H         -7.44603       81.04898       41.94882
H         -8.64848       83.03467       41.35924
H         -7.38079       83.42419       42.57132
H        -10.29785       83.05741       43.11348
H         -9.10530       83.46180       44.27796
H         -9.45735       84.53318       43.01107
N         -8.34364       78.32987       46.81979
C         -9.18274       78.24205       48.02696
C         -8.50567       77.50836       49.19039
O         -9.08210       77.48761       50.26950
C        -10.58076       77.64524       47.70392
C        -10.50519       76.29500       47.06205
O         -9.93786       75.26940       47.70993
O        -10.85470       76.15352       45.90119
H         -8.62265       77.80166       45.98280
H         -9.39095       79.27860       48.37461
H        -11.08680       78.33781       46.99608
H        -11.20622       77.58788       48.62129
N         -7.27914       76.92340       49.07215
C         -6.55718       76.34691       50.19611
C         -7.18262       75.09429       50.76809
O         -7.44964       75.05383       51.96060
H         -6.78807       76.94160       48.16809
H         -6.43331       77.11738       50.98886
H         -5.53945       76.06091       49.85128
N         -7.35255       73.99750       49.98057
C         -7.71704       72.67428       50.48116
C         -6.58220       71.67889       50.20138
O         -6.80920       70.47799       50.24918
C         -9.09115       72.23658       49.91833
C         -9.16862       72.02831       48.43402
O        -10.23599       71.72803       47.92465
O         -8.08214       72.14458       47.65829
H         -7.13780       74.08754       48.98095
H         -7.85704       72.69275       51.58406
H         -9.83506       73.01381       50.19849
H         -9.39499       71.28339       50.40299
N         -5.30667       72.12477       49.97723
C         -4.14906       71.27058       49.75108
C         -4.09038       70.59649       48.39020
O         -3.10208       69.91621       48.14925
H         -5.10903       73.13232       50.04698
H         -4.08082       70.51439       50.56270
H         -3.23909       71.90752       49.81141
N         -5.07948       70.71210       47.45680
C         -5.04855       70.04132       46.15659
C         -5.29235       71.01122       45.00132
O         -5.54318       72.18715       45.22505
C         -6.04840       68.85909       46.15210
C         -5.58839       67.73571       47.09569
O         -7.34913       69.28336       46.47137
H         -5.91236       71.25837       47.68737
H         -4.03834       69.61336       45.97043
H         -6.07917       68.40305       45.14103
H         -7.39553       69.43363       47.45235
H         -6.30345       66.88833       47.05087
H         -4.58793       67.36635       46.78150
H         -5.52113       68.09143       48.14532
N         -5.14694       70.57001       43.71799
C         -5.16562       71.41525       42.52544
C         -6.20508       70.90937       41.52540
O         -6.20400       69.73094       41.19500
C         -3.72680       71.40706       41.91659
C         -2.68546       72.04818       42.88185
C         -3.64703       72.06703       40.52811
C         -2.85661       73.55695       43.11729
H         -4.90769       69.57653       43.57296
H         -5.41867       72.46558       42.77280
H         -3.42970       70.34386       41.77176
H         -1.66648       71.88851       42.46823
H         -2.72096       71.53244       43.86497
H         -4.28517       71.52681       39.79958
H         -3.97288       73.12396       40.55868
H         -2.60374       72.01932       40.14821
H         -3.84237       73.79220       43.56159
H         -2.07469       73.91211       43.82053
H         -2.73584       74.12811       42.17388
N         -7.06335       71.79281       40.93420
C         -8.03414       71.46270       39.89258
C         -7.56026       72.00997       38.54917
O         -6.48680       72.59062       38.48256
C         -9.43075       72.04995       40.25226
C         -9.98376       71.48794       41.56405
O         -9.39955       73.45862       40.27663
H         -6.97932       72.78216       41.18313
H         -8.12575       70.36028       39.78019
H        -10.16547       71.75880       39.47454
H         -9.07437       73.75337       41.16538
H        -10.07225       70.38314       41.50548
H         -9.31065       71.76102       42.39771
H        -10.98932       71.91711       41.76232
N         -8.32219       71.85583       37.42846
C         -7.95848       72.36705       36.10490
C         -7.71007       73.86669       36.14582
O         -6.67528       74.29895       35.65983
C         -9.05863       71.99925       35.07873
C         -8.75759       72.55106       33.67815
O         -9.14655       70.59803       35.01061
H         -9.21828       71.35425       37.52161
H         -7.01844       71.87367       35.76712
H        -10.02926       72.42306       35.42866
H        -10.02273       70.37897       34.59963
H         -9.55147       72.23260       32.96996
H         -8.74252       73.66143       33.68917
H         -7.77832       72.17668       33.31201
N         -8.59933       74.71539       36.73002
C         -8.35651       76.15203       36.86030
C         -7.07034       76.42409       37.62406
O         -6.22588       77.14886       37.11499
C         -9.54179       76.84286       37.57460
C        -10.77754       76.89771       36.66318
C        -11.97526       77.55662       37.36322
C        -13.20072       77.69195       36.43961
N        -12.97460       78.64270       35.34677
H         -9.45966       74.31360       37.13338
H         -8.25289       76.61313       35.85200
H         -9.26513       77.89489       37.81217
H         -9.76742       76.32193       38.53224
H        -11.07121       75.87578       36.34241
H        -10.49290       77.48498       35.76633
H        -11.70035       78.56308       37.74774
H        -12.25910       76.92035       38.23018
H        -14.05507       78.05874       37.05015
H        -13.47930       76.69708       36.02654
H        -12.71887       79.58035       35.73398
H        -12.22580       78.30898       34.70079
H        -13.85576       78.74004       34.79278
N         -6.85902       75.88863       38.85799
C         -5.68013       76.20597       39.67108
C         -4.38430       75.66204       39.05950
O         -3.31964       75.98315       39.56910
C         -5.83977       75.66062       41.11373
C         -7.15062       76.13257       41.78823
C         -7.42068       75.45803       43.10278
O         -7.81920       76.18599       44.15752
O         -7.41353       74.24168       43.19101
H         -7.58755       75.26362       39.22654
H         -5.60802       77.31424       39.73852
H         -4.97070       75.96302       41.73958
H         -5.83342       74.56083       41.05019
H         -8.02312       75.87801       41.16650
H         -7.14766       77.23717       41.90830
N         -4.39099       74.81942       37.98662
C         -3.18781       74.28846       37.38483
H         -2.60865       73.70685       38.13107
H         -3.45789       73.60992       36.54489
H         -2.56686       75.11496       36.98169
H         -5.27770       74.51983       37.57787
Ca        -8.11291       74.59959       46.64035
O         -9.07815       70.98037       44.70452
H        -10.04176       70.80670       44.56211
H         -8.98231       70.98582       45.68460
O        -10.66503       73.64623       44.24657
H        -11.52732       73.36379       43.85052
H        -10.78169       73.50245       45.21933

Ca 1.0



