%chk=holoCaM.loop3.water3.frame5.chk
%nprocshared=20
%mem=10GB
%nosave
#b3lyp/svp scf=(tight,noincore,xqc) Test 
#IOP(5/87=12) Density=Current Pop=(MK,readradii) iop(6/33=2) iop(6/42=6)

holoCaM.loop3.water3.frame5 

   0  1 
C         60.06248       52.48005       49.65294
C         59.28597       52.31418       48.38642
O         58.09288       52.57253       48.37551
H         60.87084       53.22318       49.48792
H         59.40618       52.83514       50.47461
H         60.51185       51.50638       49.93955
N         59.91914       51.86469       47.27194
C         59.28325       51.69405       45.97910
C         59.23350       50.21225       45.64809
O         59.88254       49.74567       44.72358
C         60.05040       52.53726       44.95237
C         59.49486       52.34135       43.58882
O         58.24772       52.74099       43.30203
O         60.18462       51.82493       42.72696
H         60.92037       51.62441       47.34082
H         58.23045       52.04717       45.98281
H         61.11870       52.23558       44.95459
H         59.98578       53.61749       45.20924
N         58.43198       49.41207       46.39614
C         58.22471       47.98806       46.15027
C         57.38387       47.69943       44.89348
O         57.23431       46.52966       44.56959
C         57.63616       47.38140       47.44405
C         57.21070       45.91534       47.35129
C         56.90270       45.36639       48.74412
C         56.31816       43.95517       48.65562
N         56.07549       43.41344       49.99059
H         57.94863       49.85025       47.19613
H         59.21513       47.50103       45.99996
H         56.74947       47.96404       47.77724
H         58.43029       47.48602       48.21914
H         58.01383       45.29966       46.89103
H         56.29258       45.85911       46.72648
H         56.17202       46.02597       49.26147
H         57.84703       45.34749       49.33307
H         57.02278       43.28987       48.10970
H         55.35828       43.99185       48.09202
H         55.68925       42.44651       49.90113
H         56.97261       43.37306       50.52704
H         55.38559       44.01134       50.50126
N         56.86735       48.68251       44.09615
C         56.16885       48.40079       42.83535
C         57.05297       48.70433       41.62825
O         56.64104       48.41696       40.51282
C         54.80957       49.12988       42.74438
C         54.91599       50.61886       42.86421
O         54.62999       51.33356       41.91700
O         55.26203       51.17205       44.04131
H         57.05253       49.66193       44.33813
H         55.94498       47.31468       42.75831
H         54.12116       48.77539       43.53962
H         54.34682       48.87917       41.76378
N         58.30165       49.22632       41.77577
C         59.24449       49.41821       40.69336
C         58.77468       50.41117       39.66260
O         58.79896       50.07822       38.48620
H         58.64366       49.46624       42.70915
H         59.47744       48.43783       40.22130
H         60.19254       49.80576       41.12267
N         58.35848       51.66072       40.02719
C         58.00785       52.70443       39.06668
C         58.87394       53.96236       39.25898
O         58.69478       54.91415       38.51550
C         56.46470       52.93000       39.08755
C         55.85214       54.10480       39.88765
N         55.77896       55.30839       39.06996
O         56.60169       54.42732       41.00206
H         58.27422       51.87529       41.02651
H         58.22434       52.32166       38.04491
H         55.98543       51.97791       39.40533
H         56.11819       53.05776       38.03916
H         55.17028       55.12858       38.24225
H         55.31699       56.05255       39.64152
N         59.87121       54.00971       40.20186
C         60.79879       55.11903       40.38945
C         60.30646       56.25340       41.27657
O         61.08266       57.17556       41.48186
H         60.08746       53.16640       40.74087
H         61.13684       55.49851       39.40168
H         61.70046       54.72161       40.90685
N         59.06098       56.27827       41.83333
C         58.57171       57.37254       42.67216
C         57.91758       56.88130       43.96181
O         57.58975       55.71083       44.08562
C         57.49880       58.19350       41.92286
C         57.99565       58.92069       40.70132
C         58.28221       58.23286       39.51195
C         58.13122       60.31772       40.73386
C         58.69589       58.93186       38.37338
C         58.55236       61.01424       39.60085
C         58.83163       60.32412       38.41358
O         59.22172       60.98892       37.30793
H         58.42834       55.51205       41.62695
H         59.40834       58.05069       42.94727
H         57.09798       58.95060       42.63145
H         56.64789       57.54818       41.62121
H         58.16179       57.16221       39.45987
H         57.91220       60.87012       41.63920
H         58.90119       58.39247       37.45709
H         58.65317       62.09080       39.64734
H         59.31092       61.95282       37.29510
N         57.65036       57.78549       44.95166
C         56.81422       57.53141       46.12094
C         55.75323       58.62986       46.18276
O         56.11202       59.79965       46.20966
C         57.64135       57.46501       47.45384
C         58.52737       56.18895       47.52125
C         56.69234       57.43070       48.67199
C         59.90154       56.33388       46.88546
H         58.02311       58.74168       44.84324
H         56.29298       56.55213       46.02967
H         58.26777       58.37314       47.59523
H         57.98821       55.33769       47.07469
H         58.73567       55.91503       48.57885
H         57.27724       57.36783       49.61514
H         56.11396       58.37319       48.74208
H         55.99496       56.56776       48.62258
H         60.47709       57.10278       47.44336
H         60.43986       55.36551       46.98056
H         59.85000       56.60983       45.81862
N         54.42950       58.31503       46.29722
C         53.38512       59.31461       46.51504
C         53.05100       59.37627       47.99179
O         53.59782       58.60074       48.75289
C         52.12745       58.97006       45.68837
O         51.54752       57.76606       46.11980
H         54.17272       57.32337       46.38097
H         53.74568       60.32058       46.21010
H         52.36553       58.92430       44.60166
H         51.36265       59.76664       45.80510
H         51.94725       57.03458       45.58404
N         52.16779       60.28596       48.48140
C         51.75662       60.30266       49.88395
C         50.99214       59.03449       50.22309
O         51.21378       58.45881       51.27888
C         50.86664       61.51440       50.16142
H         51.75855       60.97417       47.83102
H         52.64734       60.40594       50.54527
H         51.42573       62.44623       49.93028
H         49.94408       61.48076       49.54512
H         50.58580       61.53734       51.23704
N         50.09008       58.53361       49.33199
C         49.29823       57.32545       49.53898
C         50.18102       56.13382       49.87774
O         49.94435       55.47956       50.88310
C         48.46657       57.04999       48.27499
H         49.97821       59.03457       48.43650
H         48.58721       57.49252       50.37695
H         47.81984       57.92876       48.05711
H         49.12204       56.88012       47.39291
H         47.81248       56.16504       48.41483
N         51.23995       55.81918       49.08816
C         52.17450       54.72685       49.35825
C         52.91286       54.95883       50.66865
O         52.90897       54.07554       51.51427
C         53.14992       54.58488       48.16783
C         52.36345       54.11287       46.92420
C         53.19941       54.05789       45.68828
O         53.30785       53.01583       45.06380
O         53.80882       55.16625       45.23947
H         51.40222       56.41319       48.26281
H         51.62555       53.76154       49.43729
H         53.93732       53.83365       48.39821
H         53.65026       55.56111       47.98018
H         51.52398       54.80175       46.70850
H         51.93898       53.10495       47.12896
N         53.53661       56.14167       50.91448
C         54.24261       56.45952       52.13877
H         55.28024       56.76910       51.89265
H         53.73351       57.30719       52.64608
H         54.28474       55.60086       52.83974
H         53.48223       56.87382       50.20773
Ca        56.16401       53.45808       42.95567
O         53.21105       53.99345       41.83544
H         52.99536       54.70181       41.17808
H         52.42979       53.97013       42.44289
O         56.01562       53.43475       46.06459
H         55.43706       52.81894       46.57751
H         56.71319       53.67699       46.71201
O         54.68606       56.55344       42.94329
H         54.70195       57.53827       42.85525
H         53.72491       56.34050       43.03181

Ca 1.0



