%chk=holoCaM-CaMKII.loop4.water2.frame145.chk
%nprocshared=20
%mem=10GB
%nosave
#b3lyp/svp scf=(tight,noincore,xqc) Test 
#IOP(5/87=12) Density=Current Pop=(MK,readradii) iop(6/33=2) iop(6/42=6)

holoCaM-CaMKII.loop4.water2.frame145 

   -3  1 
C         98.26620        2.42310       84.61186
C         99.26769        2.69787       85.69425
O        100.46124        2.65577       85.43673
H         97.61030        3.30940       84.47709
H         98.77275        2.20242       83.64868
H         97.64126        1.55052       84.89708
N         98.83590        3.00493       86.94600
C         99.73188        3.30024       88.05836
C        100.56264        2.07055       88.42555
O         99.99479        0.99062       88.51430
C         98.90637        3.79408       89.26258
C         99.82491        4.27948       90.33184
O         99.80372        3.77287       91.43652
O        100.71270        5.25026       90.05448
H         97.81609        3.05492       87.10282
H        100.39735        4.14067       87.75745
H         98.24071        2.98576       89.63964
H         98.27373        4.65443       88.95893
N        101.90866        2.16637       88.66874
C        102.77719        1.00641       88.89434
C        103.27369        0.90271       90.34504
O        103.66208       -0.19207       90.72781
C        103.95893        1.01973       87.86098
C        103.40747        1.12406       86.41113
C        104.87502       -0.21127       88.01255
C        104.47942        1.15636       85.31526
H        102.34204        3.09594       88.66326
H        102.18075        0.08306       88.72456
H        104.58026        1.92309       88.05488
H        102.83491        2.06892       86.32308
H        102.71887        0.27789       86.20145
H        105.73441       -0.15818       87.31552
H        105.33624       -0.24993       89.01780
H        104.30729       -1.14665       87.82557
H        105.21085        1.96737       85.49337
H        105.02257        0.19271       85.25137
H        103.99535        1.32853       84.33086
N        103.27376        1.95316       91.21912
C        103.69100        1.82760       92.62405
C        102.53532        2.11864       93.58465
O        102.77347        2.26518       94.77558
C        104.98058        2.64124       92.91190
C        104.88592        4.07925       92.51352
O        105.63189        4.52257       91.65570
O        103.90959        4.85311       93.00683
H        102.95775        2.87670       90.89316
H        103.98143        0.78286       92.86671
H        105.81248        2.17743       92.33515
H        105.24350        2.56616       93.98872
N        101.24136        2.04703       93.15655
C        100.07706        2.07326       94.03167
C         99.75574        3.38320       94.72643
O         98.75227        3.39353       95.42691
H        101.05743        1.82666       92.16846
H        100.19088        1.27861       94.80158
H         99.18403        1.81471       93.42157
N        100.52221        4.51042       94.63490
C        100.19611        5.70429       95.41972
C         98.94941        6.44783       94.92925
O         98.47995        7.30927       95.66008
C        101.41947        6.63850       95.57169
C        101.93189        7.26098       94.30548
O        101.37947        7.06878       93.23931
O        103.02450        8.04529       94.35163
H        101.39087        4.48897       94.08455
H         99.98357        5.35501       96.45612
H        102.24789        6.04622       96.01721
H        101.16821        7.45940       96.27707
N         98.36727        6.19367       93.71730
C         97.13929        6.83913       93.25914
C         97.34096        7.78294       92.08090
O         96.34920        8.29642       91.58459
H         98.79986        5.51023       93.08158
H         96.66535        7.43353       94.07018
H         96.41918        6.03983       92.97863
N         98.58287        8.10977       91.61984
C         98.84915        9.07725       90.55578
C         99.69707        8.45648       89.46888
O        100.75961        7.92919       89.76336
C         99.59804       10.29434       91.12719
C         98.63764       11.25395       91.83926
C         99.36386       12.47567       92.33273
N        100.26742       12.38384       93.33441
O         99.12715       13.56347       91.82804
H         99.39971        7.69258       92.07601
H         97.90981        9.44420       90.08741
H        100.04273       10.87062       90.28476
H        100.42611        9.95885       91.78989
H         98.11531       10.76029       92.68524
H         97.87361       11.57313       91.09429
H        100.46186       11.47835       93.78557
H        100.75849       13.22468       93.67229
N         99.29749        8.52862       88.16628
C        100.05882        7.93382       87.07701
C        101.13302        8.91197       86.60810
O        100.79995        9.96033       86.07314
C         99.11328        7.52808       85.90837
C         99.87968        6.76483       84.81664
C         97.94524        6.65369       86.39921
H         98.41629        9.01571       87.94371
H        100.52337        6.99365       87.45355
H         98.67370        8.44839       85.46296
H         99.19509        6.50262       83.98204
H        100.69931        7.38344       84.40102
H        100.31259        5.82699       85.22845
H         97.27514        6.39753       85.55153
H         98.32325        5.71787       86.85262
H         97.32542        7.18560       87.15072
N        102.45160        8.63034       86.80130
C        103.55453        9.49448       86.36598
C        103.69105        9.48486       84.84134
O        102.98539        8.73462       84.18921
C        104.84847        8.96765       87.04620
C        106.11827        9.72847       86.76785
N        106.23033       11.04080       87.07349
O        107.06997        9.14159       86.27646
H        102.67637        7.76969       87.31953
H        103.36065       10.52934       86.72264
H        104.99858        7.91157       86.73976
H        104.69006        8.98482       88.14552
H        105.44363       11.55405       87.49450
H        107.10742       11.54608       86.87741
N        104.59261       10.28798       84.20335
C        104.91006       10.19072       82.77689
C        105.57313        8.84924       82.48438
O        105.07038        8.11197       81.64887
C        105.85577       11.34382       82.36466
C        106.40344       11.17741       80.96302
C        105.55917       11.16012       79.83893
C        107.78757       11.01285       80.78183
C        106.09610       10.97477       78.55835
C        108.31946       10.82654       79.50585
C        107.47550       10.80479       78.38818
O        107.97875       10.61889       77.15118
H        105.10093       10.98596       84.76226
H        103.97869       10.28588       82.17330
H        106.70591       11.37300       83.08018
H        105.32036       12.31442       82.45141
H        104.48943       11.28312       79.95158
H        108.45852       11.01804       81.63156
H        105.43994       10.95794       77.69703
H        109.38785       10.69482       79.39002
H        108.92610       10.49074       76.99683
N        106.71568        8.47480       83.13647
C        107.39725        7.19653       82.90629
C        106.54995        5.97719       83.28668
O        107.00148        4.86636       83.04285
C        108.74556        7.13788       83.66387
C        109.75824        8.17225       83.14271
C        111.08606        8.02249       83.83092
O        111.70745        6.97425       83.74876
O        111.60844        9.05130       84.52488
H        107.12231        9.13966       83.80733
H        107.62002        7.11282       81.81931
H        109.19441        6.13223       83.50648
H        108.57745        7.27532       84.75524
H        109.37770        9.20240       83.30335
H        109.91419        8.02189       82.05224
N        105.30581        6.09373       83.82890
C        104.41006        4.97163       84.07274
C        103.38390        4.87966       82.95432
O        103.12269        3.77651       82.49593
C        103.72835        5.12750       85.44215
C        104.73300        4.95427       86.59360
C        104.09439        5.07116       87.94671
O        104.82513        4.79683       89.03959
O        102.92224        5.38652       88.07308
H        104.92666        7.02488       84.02603
H        104.95733        4.00272       84.07390
H        102.95405        4.33718       85.54936
H        103.22269        6.11590       85.50233
H        105.55879        5.69134       86.52193
H        105.17714        3.94350       86.52337
N        102.80988        5.99403       82.42046
C        101.87300        5.97567       81.31763
H        100.93969        6.49217       81.62305
H        102.31570        6.52112       80.45624
H        101.62240        4.94602       80.99086
H        103.07183        6.91474       82.77429
Ca       102.49668        5.45333       91.38478
O        105.55334        7.30239       90.16059
H        106.12629        7.04817       89.39384
H        106.19151        7.53402       90.88029
O        103.14374        8.97004       91.08064
H        103.39600        9.85758       90.72283
H        102.72515        9.16826       91.95470

Ca 1.0



