%chk=holoCaM-CaMKII.loop4.water2.frame138.chk
%nprocshared=20
%mem=10GB
%nosave
#b3lyp/svp scf=(tight,noincore,xqc) Test 
#IOP(5/87=12) Density=Current Pop=(MK,readradii) iop(6/33=2) iop(6/42=6)

holoCaM-CaMKII.loop4.water2.frame138 

   -3  1 
C         31.06501       23.81931       63.98449
C         32.26262       22.91995       64.05118
O         33.26457       23.22918       63.42320
H         30.23542       23.43773       64.61596
H         31.34647       24.83014       64.34975
H         30.71239       23.89496       62.93549
N         32.24172       21.79117       64.81372
C         33.40870       20.93686       64.97673
C         33.83219       20.30990       63.65625
O         32.98784       19.78858       62.94113
C         33.14738       19.81776       66.00761
C         34.43475       19.19069       66.48214
O         34.40720       18.26230       67.26311
O         35.61471       19.73913       66.14632
H         31.38305       21.56420       65.33891
H         34.21424       21.58167       65.38792
H         32.46242       19.05631       65.57662
H         32.66872       20.24539       66.91598
N         35.14919       20.26072       63.31784
C         35.66711       19.68998       62.08452
C         36.28104       18.31586       62.33663
O         35.98233       17.41404       61.56497
C         36.69718       20.67816       61.45364
C         36.00691       22.03578       61.14789
C         37.33372       20.07743       60.18314
C         36.94409       23.10328       60.57663
H         35.83997       20.64440       63.97390
H         34.84863       19.54433       61.34177
H         37.51539       20.85204       62.18868
H         35.58612       22.44650       62.09004
H         35.16730       21.88281       60.43495
H         36.56223       19.88953       59.40715
H         38.11293       20.74858       59.77081
H         37.85261       19.12387       60.41391
H         37.32341       22.81683       59.57600
H         36.38567       24.05624       60.46191
H         37.80581       23.27593       61.25196
N         37.15166       18.07326       63.36280
C         37.90660       16.82075       63.47458
C         37.36254       15.83025       64.50660
O         37.96719       14.77694       64.65721
C         39.41398       17.13341       63.61414
C         39.82253       17.76757       64.91300
O         38.94296       17.92469       65.91293
O         40.98077       18.11479       65.07641
H         37.33027       18.81783       64.05170
H         37.82917       16.26320       62.51529
H         39.69378       17.81699       62.78201
H         40.00210       16.19801       63.49982
N         36.17293       16.02242       65.15099
C         35.46692       14.92385       65.80635
C         35.71113       14.75061       67.28963
O         35.08868       13.86086       67.85377
H         35.62618       16.86774       64.93332
H         35.67535       13.96632       65.27884
H         34.37628       15.10447       65.68948
N         36.55333       15.54346       68.01108
C         36.70809       15.38711       69.46319
C         35.45118       15.79769       70.25693
O         35.47944       15.70430       71.47635
C         37.93996       16.18287       69.96041
C         37.81434       17.67577       69.84739
O         36.78562       18.19065       69.44465
O         38.84600       18.45644       70.21773
H         37.11084       16.25573       67.51655
H         36.93634       14.31798       69.67269
H         38.82917       15.85650       69.37821
H         38.12812       15.94288       71.02920
N         34.33151       16.28833       69.64446
C         33.15435       16.78418       70.34242
C         33.47478       18.02998       71.14167
O         33.19001       18.06258       72.32759
H         34.29118       16.33309       68.62304
H         32.72243       15.98462       70.98276
H         32.38963       17.06523       69.58507
N         34.04630       19.10323       70.51980
C         34.49266       20.35352       71.15272
C         34.85182       21.37016       70.06605
O         35.45237       20.98255       69.07369
C         35.75569       20.17291       72.03828
C         35.57426       19.30101       73.28907
C         36.78612       19.26140       74.18374
N         36.73660       18.55378       75.33591
O         37.81131       19.85498       73.88138
H         34.16160       19.01550       69.50469
H         33.66921       20.78069       71.76553
H         36.05035       21.18651       72.39172
H         36.58846       19.76586       71.43168
H         35.38927       18.25199       72.99691
H         34.72135       19.70161       73.87960
H         35.87706       18.05216       75.60619
H         37.55391       18.50957       75.96159
N         34.55403       22.69888       70.20513
C         34.80868       23.67871       69.14659
C         35.89731       24.65902       69.56907
O         35.69092       25.42414       70.50048
C         33.49149       24.42374       68.78371
C         33.69343       25.40244       67.61512
C         32.37032       23.43815       68.42005
H         34.12070       23.02529       71.08197
H         35.15517       23.15752       68.23217
H         33.15483       25.00415       69.67197
H         34.00236       24.85701       66.69898
H         32.74809       25.94448       67.40057
H         34.46073       26.16211       67.86074
H         32.15173       22.75830       69.27017
H         31.43547       23.99343       68.19085
H         32.65416       22.82966       67.53613
N         37.09553       24.68160       68.91035
C         38.17280       25.62883       69.21520
C         37.81202       27.00555       68.64383
O         36.84496       27.09519       67.90366
C         39.49610       25.05465       68.61710
C         40.79797       25.69965       69.05332
N         41.69277       25.00793       69.79856
O         41.07884       26.83137       68.70312
H         37.25736       23.97539       68.17635
H         38.29193       25.66871       70.32035
H         39.44237       25.03882       67.50646
H         39.55178       23.99644       68.94626
H         41.50451       24.04155       70.10083
H         42.58515       25.44380       70.07628
N         38.54774       28.12138       68.91698
C         38.32407       29.41345       68.25751
C         38.49641       29.28051       66.74896
O         37.70099       29.83190       66.00253
C         39.32354       30.46705       68.77860
C         39.12336       31.79943       68.08766
C         37.91669       32.50721       68.23026
C         40.13628       32.33135       67.27188
C         37.72655       33.72150       67.56373
C         39.94286       33.54432       66.60488
C         38.73564       34.24308       66.74771
O         38.53386       35.41124       66.10543
H         39.31126       28.04772       69.60193
H         37.29439       29.77022       68.48198
H         40.35563       30.09308       68.59581
H         39.20045       30.60069       69.87477
H         37.12061       32.11803       68.85219
H         41.07164       31.80185       67.14033
H         36.79125       34.25510       67.67800
H         40.73005       33.93676       65.97360
H         39.20407       35.80268       65.52711
N         39.50743       28.52099       66.24722
C         39.71686       28.22816       64.83404
C         38.43387       27.70114       64.21299
O         37.96014       28.26868       63.23854
C         40.85339       27.17381       64.72791
C         41.17828       26.71187       63.30296
C         42.24571       25.65113       63.33996
O         42.01430       24.53083       62.91298
O         43.45897       25.92662       63.85690
H         40.13449       28.07311       66.92407
H         40.02278       29.15592       64.30115
H         40.56705       26.27599       65.32102
H         41.77406       27.59874       65.18643
H         41.53171       27.57031       62.69461
H         40.26686       26.28657       62.82923
N         37.82666       26.60354       64.73507
C         36.63061       25.99132       64.16206
C         35.38694       26.86020       64.29746
O         34.40971       26.58383       63.61498
C         36.38248       24.64025       64.85251
C         37.52847       23.65597       64.55704
C         37.43304       22.39930       65.35862
O         38.24931       21.51022       65.18121
O         36.48226       22.25186       66.29681
H         38.26790       26.16512       65.55684
H         36.81347       25.81382       63.07775
H         35.43198       24.18515       64.50182
H         36.30037       24.82620       65.94658
H         38.51854       24.09986       64.78397
H         37.49837       23.40474       63.48105
N         35.32258       27.89148       65.18138
C         34.14687       28.71981       65.33223
H         33.27015       28.09444       65.60375
H         34.31293       29.46488       66.14038
H         33.94275       29.26276       64.38565
H         36.11907       28.08329       65.79215
Ca        37.51922       19.63508       67.33353
O         38.26008       21.42225       69.98095
H         38.60457       21.16252       70.87149
H         38.22088       22.40889       70.01504
O         40.31562       20.86465       67.61458
H         40.79760       20.46103       66.84969
H         40.68710       21.77928       67.68947

Ca 1.0



