%chk=holoCaM.loop1.water1.frame378.chk
%nprocshared=20
%mem=10GB
%nosave
#b3lyp/svp scf=(tight,noincore,xqc) Test 
#IOP(5/87=12) Density=Current Pop=(MK,readradii) iop(6/33=2) iop(6/42=6)

holoCaM.loop1.water1.frame378 

   0  1 
C         99.02140      104.00688       97.99847
C         98.73465      103.87276       99.46467
O         98.28058      104.82975      100.07686
H        100.09064      103.79663       97.79611
H         98.39400      103.27869       97.43896
H         98.77165      105.02748       97.63705
N         98.92038      102.67387      100.08376
C         98.48465      102.43444      101.45241
C         99.38646      103.13814      102.46693
O        100.56922      102.83571      102.54040
C         98.42009      100.91926      101.74034
C         97.41426      100.59925      102.81602
O         96.51945       99.80576      102.58090
O         97.44029      101.21671      104.00753
H         99.26266      101.88317       99.51562
H         97.43983      102.80879      101.51026
H         99.43111      100.52854      101.98591
H         98.06923      100.38297      100.83056
N         98.87009      104.08644      103.28980
C         99.60978      104.80316      104.32874
C        100.09718      103.85753      105.42173
O        101.26719      103.91162      105.77218
C         98.66603      105.87139      104.92625
C         99.28504      106.88279      105.89950
C         98.17601      107.83252      106.39649
C         98.71694      108.97374      107.26456
N         97.62002      109.80391      107.76839
H         97.88045      104.32434      103.15663
H        100.46867      105.34182      103.86875
H         97.80449      105.36158      105.41412
H         98.30614      106.48045      104.07388
H        100.06801      107.46126      105.36107
H         99.74683      106.36874      106.76897
H         97.44016      107.23979      106.98416
H         97.64673      108.28466      105.52762
H         99.40377      109.60214      106.65431
H         99.28544      108.55886      108.12482
H         97.06510      110.20016      106.97465
H         96.99270      109.23340      108.38137
H         98.01308      110.59196      108.33185
N         99.23388      102.98366      106.01945
C         99.55743      102.16904      107.19346
C         99.58628      100.65479      106.92220
O         99.72970       99.89913      107.87359
C         98.58601      102.56588      108.32961
C         97.13801      102.35087      107.98671
O         96.67204      101.11275      107.76466
O         96.37476      103.30132      107.92078
H         98.27113      102.93510      105.65670
H        100.57548      102.41228      107.56925
H         98.73859      103.64818      108.54074
H         98.82440      102.00672      109.25924
N         99.57544      100.14412      105.65597
C         99.78510       98.73348      105.32864
C         98.68691       97.74152      105.70031
O         98.87953       96.56906      105.40980
H         99.56157      100.79930      104.86605
H        100.73544       98.40045      105.80062
H         99.91650       98.65305      104.22784
N         97.53693       98.09079      106.34200
C         96.53261       97.10018      106.75943
C         95.81322       96.37159      105.62097
O         95.15365       95.38385      105.91816
C         95.48553       97.72309      107.71277
C         94.75504       98.91089      107.14436
O         95.08429       99.41155      105.93930
O         93.91337       99.47762      107.82065
H         97.41481       99.07329      106.60675
H         97.07002       96.32017      107.34425
H         96.00528       98.06702      108.63241
H         94.74730       96.94650      108.01125
N         95.84460       96.79299      104.32461
C         95.17335       96.08189      103.24029
C         94.01580       96.85581      102.63792
O         93.49185       96.40407      101.63093
H         96.35164       97.65611      104.08540
H         94.76832       95.09894      103.56769
H         95.92811       95.87824      102.45128
N         93.52967       97.99470      103.21351
C         92.41797       98.77074      102.66530
C         92.85237      100.20852      102.41545
O         93.95742      100.57981      102.76609
C         91.20042       98.72148      103.62765
C         90.60110       97.30842      103.73202
O         91.53285       99.22803      104.89932
H         93.94602       98.32468      104.08986
H         92.09970       98.35549      101.68454
H         90.38811       99.35919      103.21775
H         92.01563       98.51973      105.40142
H         90.27115       96.96051      102.72962
H         91.34045       96.58491      104.13540
H         89.71564       97.32279      104.40331
N         92.01812      101.06909      101.76857
C         92.32985      102.47154      101.50248
C         91.21679      103.31913      102.10186
O         90.05625      103.09991      101.78808
C         92.49055      102.68945       99.96899
C         93.70214      101.89596       99.39242
C         92.60373      104.17966       99.59433
C         95.08788      102.37599       99.85649
H         91.11598      100.70778      101.42551
H         93.28381      102.77347      101.98048
H         91.57165      102.30167       99.47717
H         93.68287      101.97082       98.28406
H         93.59817      100.82116       99.65227
H         93.48174      104.65002      100.07319
H         92.69880      104.29060       98.49363
H         91.69962      104.73892       99.91113
H         95.28497      103.42015       99.53573
H         95.19710      102.30546      100.95485
H         95.87524      101.74142       99.39776
N         91.52088      104.32542      102.96870
C         90.53666      105.15599      103.65462
C         90.51739      106.56839      103.07179
O         91.15799      106.81375      102.06038
C         90.82540      105.12545      105.17790
C         90.77072      103.68478      105.70922
O         92.07921      105.70599      105.43366
H         92.50797      104.51033      103.17161
H         89.51023      104.75763      103.50015
H         90.04492      105.70222      105.71611
H         92.25367      105.62741      106.40784
H         91.56737      103.06046      105.25096
H         90.90638      103.68704      106.81019
H         89.78247      103.22982      105.48719
N         89.73824      107.53386      103.64154
C         89.50322      108.86082      103.07075
C         90.79022      109.61873      102.80878
O         90.98056      110.08294      101.69448
C         88.58185      109.69498      104.00274
C         88.15151      111.01160      103.34898
O         87.41844      108.96463      104.30498
H         89.23989      107.29481      104.50776
H         88.97018      108.72316      102.10328
H         89.13746      109.94509      104.94060
H         87.46733      108.70971      105.26444
H         89.02726      111.64710      103.10253
H         87.58263      110.80227      102.41704
H         87.49506      111.57722      104.04319
N         91.69861      109.81943      103.79960
C         92.93624      110.57097      103.59729
C         93.83876      109.85503      102.60321
O         94.51308      110.50948      101.82057
C         93.68192      110.82257      104.93786
C         92.79015      111.42829      106.05207
C         92.08384      112.73712      105.65868
C         91.02405      113.11910      106.70174
N         90.31740      114.33790      106.30902
H         91.49048      109.41552      104.72248
H         92.68615      111.56916      103.17902
H         94.54249      111.50183      104.74536
H         94.08704      109.86203      105.32565
H         93.40263      111.60042      106.96440
H         92.02065      110.68469      106.33476
H         91.53581      112.60545      104.70544
H         92.83514      113.54739      105.53445
H         91.49301      113.26140      107.69952
H         90.28439      112.28866      106.77664
H         89.88539      114.21787      105.36330
H         89.55653      114.52974      107.00004
H         90.97995      115.14627      106.29476
N         93.89357      108.49309      102.59259
C         94.74646      107.71347      101.69569
C         94.29714      107.76468      100.23674
O         95.02463      107.26442       99.38899
C         94.72302      106.23123      102.11904
C         95.21387      106.01178      103.55514
C         95.08536      104.57687      103.97547
O         94.40199      104.26958      105.09182
O         95.58999      103.68340      103.31766
H         93.31447      107.99287      103.28146
H         95.78673      108.10003      101.77896
H         95.36626      105.63201      101.43569
H         93.68260      105.87767      102.01972
H         94.65094      106.62530      104.28668
H         96.26227      106.32594      103.59538
N         93.09035      108.27476       99.86952
C         92.61192      108.24166       98.50490
H         91.59237      108.68185       98.45282
H         93.28842      108.82270       97.84506
H         92.55384      107.18937       98.15175
H         92.46301      108.65889      100.57814
Ca        94.40310      101.45306      105.30165
O         93.10076      102.56208      107.68546
H         92.55390      101.83378      107.29564
H         93.95509      102.12703      107.92791

Ca 1.0



