%chk=holoCaM-CaMKII.loop4.water2.frame161.chk
%nprocshared=20
%mem=10GB
%nosave
#b3lyp/svp scf=(tight,noincore,xqc) Test 
#IOP(5/87=12) Density=Current Pop=(MK,readradii) iop(6/33=2) iop(6/42=6)

holoCaM-CaMKII.loop4.water2.frame161 

   -3  1 
C        -13.41689       75.72508       33.53503
C        -13.47600       74.33009       34.07892
O        -13.68756       73.39549       33.32187
H        -14.19341       76.34624       34.03049
H        -12.41727       76.16174       33.74113
H        -13.59747       75.73226       32.43968
N        -13.29591       74.12275       35.40981
C        -13.35534       72.80940       36.04003
C        -14.74488       72.20843       35.86022
O        -15.71777       72.87155       36.19294
C        -13.02910       72.95844       37.54187
C        -12.88697       71.65226       38.26278
O        -12.70129       71.65510       39.59339
O        -12.91267       70.59393       37.65983
H        -13.10554       74.94819       36.00048
H        -12.57789       72.15550       35.58414
H        -13.82837       73.55673       38.02939
H        -12.06370       73.49651       37.66469
N        -14.90795       70.94889       35.35948
C        -16.21444       70.34768       35.10073
C        -16.55955       69.26855       36.12589
O        -17.72415       69.22920       36.50164
C        -16.30299       69.82257       33.63111
C        -16.01445       70.92655       32.57577
C        -17.65921       69.15009       33.33289
C        -16.99540       72.10738       32.57323
H        -14.06865       70.39139       35.14733
H        -17.01545       71.11154       35.20744
H        -15.52558       69.04101       33.49611
H        -16.03130       70.46704       31.56278
H        -14.99139       71.31866       32.73317
H        -18.50476       69.85078       33.49182
H        -17.68600       68.78737       32.28261
H        -17.81404       68.26702       33.98619
H        -16.97736       72.64997       33.53949
H        -16.70397       72.82536       31.77774
H        -18.03080       71.77245       32.35782
N        -15.65193       68.36903       36.62862
C        -16.05901       67.28246       37.53291
C        -15.59686       67.44631       38.98097
O        -16.19104       66.80336       39.83565
C        -15.70696       65.90424       36.93405
C        -14.23550       65.57815       36.87177
O        -13.30834       66.39760       37.39876
O        -13.87809       64.52893       36.36147
H        -14.66776       68.44082       36.34593
H        -17.16754       67.29335       37.60773
H        -16.12337       65.86617       35.90324
H        -16.19936       65.10802       37.53233
N        -14.58982       68.29116       39.34876
C        -14.28504       68.61761       40.73900
C        -12.93456       68.11806       41.20675
O        -12.89864       67.41080       42.20422
H        -14.04959       68.76386       38.61892
H        -15.05799       68.20596       41.42456
H        -14.32177       69.72181       40.84838
N        -11.78165       68.44505       40.55623
C        -10.45671       68.00668       41.01006
C         -9.44298       69.14927       41.13093
O         -8.30497       68.87456       41.48697
C         -9.93590       66.88513       40.08483
C         -9.72705       67.26534       38.64269
O         -9.33248       66.42002       37.85640
O         -9.96437       68.51338       38.20040
H        -11.85903       68.98542       39.68404
H        -10.53078       67.54710       42.02041
H        -10.66724       66.04826       40.11751
H         -8.97158       66.50452       40.48790
N         -9.76474       70.44460       40.84694
C         -8.80767       71.54096       40.86003
C         -7.73450       71.31405       39.82473
O         -6.56157       71.37664       40.15891
H        -10.72570       70.68233       40.58553
H         -8.36756       71.66511       41.87417
H         -9.34007       72.48083       40.59746
N         -8.09116       71.05277       38.53498
C         -7.16877       70.73264       37.44255
C         -7.94342       70.77810       36.13081
O         -8.93612       70.07283       36.00829
C         -6.53561       69.31230       37.56389
C         -5.61128       69.08658       38.77299
C         -4.91459       67.74805       38.77368
N         -4.06489       67.44117       39.78200
O         -5.10855       66.93776       37.87903
H         -9.10000       71.09983       38.32071
H         -6.35912       71.49399       37.40242
H         -5.91822       69.15630       36.65063
H         -7.33275       68.53940       37.57539
H         -6.20270       69.11665       39.70612
H         -4.82985       69.87738       38.77962
H         -3.88903       68.11414       40.54332
H         -3.57955       66.53223       39.80391
N         -7.53794       71.57552       35.10009
C         -8.26512       71.67508       33.83782
C         -7.45908       71.00535       32.73559
O         -6.37416       71.45310       32.39329
C         -8.61810       73.15796       33.53979
C         -9.17402       73.36173       32.12083
C         -9.65554       73.66071       34.55864
H         -6.66756       72.11935       35.20208
H         -9.23069       71.12782       33.90715
H         -7.69452       73.77252       33.62282
H        -10.09334       72.76364       31.96151
H         -9.41084       74.43454       31.95633
H         -8.41801       73.07661       31.36013
H         -9.28084       73.55596       35.59793
H         -9.89298       74.73042       34.37914
H        -10.59630       73.07563       34.46311
N         -7.96630       69.87970       32.15855
C         -7.33751       69.10232       31.09896
C         -7.39417       69.86806       29.78016
O         -7.98989       70.93657       29.73465
C         -8.14240       67.77106       30.96632
C         -7.45353       66.66566       30.21402
N         -6.30698       66.12974       30.69107
O         -7.95738       66.21057       29.19927
H         -8.85194       69.52749       32.52969
H         -6.29512       68.87505       31.40945
H         -9.13894       67.99415       30.51909
H         -8.32506       67.34944       31.97741
H         -5.89150       66.47459       31.56877
H         -5.84959       65.34875       30.19875
N         -6.86086       69.34606       28.64092
C         -7.13253       69.90786       27.32010
C         -8.62348       69.81270       27.03628
O         -9.22288       70.79764       26.63433
C         -6.37064       69.12658       26.22177
C         -6.81458       69.55572       24.83579
C         -6.64669       70.88066       24.39586
C         -7.44974       68.62982       23.98901
C         -7.11644       71.27128       23.13671
C         -7.91751       69.02248       22.73289
C         -7.75602       70.34671       22.30355
O         -8.21538       70.74151       21.09881
H         -6.31092       68.47694       28.70405
H         -6.80340       70.97028       27.27383
H         -6.57622       68.04078       26.34872
H         -5.27586       69.27535       26.33973
H         -6.16730       71.61463       25.03073
H         -7.59990       67.60547       24.30633
H         -6.99214       72.29668       22.81169
H         -8.41346       68.29810       22.09899
H         -8.67388       70.13509       20.49936
N         -9.26546       68.62124       27.18039
C        -10.66785       68.40823       26.83948
C        -11.64446       69.18265       27.73103
O        -12.83067       69.13301       27.43339
C        -11.00161       66.89689       26.86285
C        -10.14635       66.09867       25.85312
C        -10.48760       64.63396       25.82185
O        -11.44746       64.12159       26.61702
O         -9.88198       63.89429       25.06286
H         -8.70603       67.82210       27.50031
H        -10.81931       68.75992       25.79415
H        -12.07007       66.76175       26.58441
H        -10.84902       66.49625       27.88973
H         -9.06845       66.18029       26.10199
H        -10.30065       66.51583       24.83445
N        -11.24535       69.94084       28.79943
C        -12.16404       70.76608       29.58805
C        -11.89202       72.25607       29.39390
O        -12.70275       73.05250       29.84692
C        -12.02951       70.44372       31.08689
C        -12.39099       68.99972       31.45456
C        -12.07660       68.77039       32.90538
O        -13.01837       68.43871       33.79820
O        -10.93489       68.90378       33.30169
H        -10.25151       69.96569       29.05654
H        -13.21352       70.59436       29.26241
H        -12.68309       71.12287       31.67921
H        -10.97324       70.64165       31.37475
H        -11.78775       68.28605       30.85446
H        -13.46944       68.82008       31.25475
N        -10.78140       72.71958       28.75350
C        -10.53313       74.12802       28.54534
H         -9.55518       74.26454       28.03415
H        -11.32996       74.55909       27.90377
H        -10.50188       74.66006       29.51868
H        -10.06878       72.07150       28.41343
Ca       -12.16125       68.38256       35.88961
O         -8.31950       67.30128       35.09090
H         -8.88568       67.55478       34.32051
H         -7.39688       67.30857       34.73301
O        -11.04538       65.80416       34.72631
H        -10.87341       65.01256       35.29532
H        -11.57750       65.45739       33.96698

Ca 1.0



