%chk=holoCaM.loop3.water2.frame402.chk
%nprocshared=20
%mem=10GB
%nosave
#b3lyp/svp scf=(tight,noincore,xqc) Test 
#IOP(5/87=12) Density=Current Pop=(MK,readradii) iop(6/33=2) iop(6/42=6)

holoCaM.loop3.water2.frame402 

   0  1 
C         78.56234       77.36661        4.92408
C         78.58956       77.50439        6.41508
O         77.68933       76.99336        7.06683
H         79.44968       77.84295        4.45763
H         78.56471       76.28725        4.66103
H         77.64336       77.83891        4.52101
N         79.61207       78.15958        7.03497
C         79.71733       78.22512        8.48341
C         78.52665       78.98873        9.07636
O         78.36213       80.16892        8.80257
C         81.07991       78.83226        8.90105
C         81.34404       78.65687       10.36584
O         82.38025       79.05894       10.86157
O         80.42671       78.03736       11.11997
H         80.36511       78.56611        6.45864
H         79.71588       77.17026        8.84207
H         81.11882       79.90921        8.62946
H         81.89603       78.30440        8.36567
N         77.62842       78.32915        9.86162
C         76.39234       78.89738       10.39546
C         76.62235       80.03567       11.37921
O         76.09542       81.11142       11.12767
C         75.53474       77.78677       11.05500
C         75.03580       76.70770       10.06090
C         74.04108       77.27553        9.02595
C         73.42412       76.21000        8.10525
N         74.41028       75.60352        7.20933
H         77.80162       77.33316       10.02889
H         75.80428       79.31952        9.55627
H         74.64026       78.23842       11.53787
H         76.13443       77.29538       11.85354
H         74.50699       75.92726       10.65037
H         75.89425       76.22177        9.55485
H         74.52001       78.04146        8.38372
H         73.20787       77.75695        9.58270
H         72.64611       76.70842        7.48421
H         72.92309       75.42390        8.71164
H         74.87327       76.34258        6.63152
H         75.12668       75.06939        7.74922
H         73.91860       74.94012        6.56764
N         77.37037       79.89289       12.51591
C         77.56854       81.00566       13.45248
C         78.81085       81.82002       13.12983
O         79.02507       82.83158       13.78485
C         77.55743       80.56471       14.93889
C         78.72522       79.69663       15.32648
O         78.78137       78.41539       14.93437
O         79.61663       80.14439       16.02916
H         77.86532       79.00399       12.66730
H         76.71825       81.71585       13.34646
H         76.60706       80.05442       15.20229
H         77.60850       81.49408       15.54959
N         79.65843       81.47584       12.12164
C         80.80849       82.27946       11.76094
C         81.82390       82.34886       12.87298
O         82.18287       83.44167       13.28750
H         79.47976       80.63353       11.55791
H         80.47556       83.29894       11.46654
H         81.30546       81.81900       10.87893
N         82.37780       81.20250       13.35214
C         83.50812       81.16859       14.27132
C         84.74612       80.62470       13.55360
O         85.74227       80.36904       14.21355
C         83.16937       80.37883       15.56646
C         82.87152       78.90351       15.42015
N         82.67955       78.14137       16.52105
O         82.81154       78.38242       14.32246
H         82.03517       80.30864       12.97549
H         83.77018       82.19388       14.61423
H         82.30406       80.86103       16.07036
H         84.04330       80.46889       16.24784
H         82.73451       78.55254       17.46391
H         82.49217       77.13144       16.43054
N         84.77990       80.48773       12.18942
C         85.93001       79.97859       11.45538
C         86.10994       78.47135       11.56373
O         87.09021       77.97267       11.02749
H         83.98849       80.81726       11.62203
H         86.84205       80.51421       11.79905
H         85.79665       80.20503       10.37566
N         85.22242       77.68317       12.23429
C         85.37824       76.24848       12.45754
C         84.12914       75.48330       12.03501
O         83.03940       75.82687       12.47560
C         85.65179       76.02532       13.95674
C         86.97548       76.64199       14.34937
C         87.03075       77.72883       15.23670
C         88.17308       76.13251       13.81592
C         88.26203       78.30323       15.57309
C         89.40105       76.70183       14.15885
C         89.44985       77.79237       15.03731
O         90.62885       78.35413       15.37272
H         84.41172       78.12815       12.67005
H         86.24603       75.84590       11.89211
H         85.69050       74.93948       14.18983
H         84.81720       76.46916       14.54393
H         86.12238       78.14021       15.65836
H         88.15740       75.29095       13.13485
H         88.29317       79.14766       16.24993
H         90.31260       76.29491       13.73908
H         91.47130       78.02683       15.02548
N         84.22815       74.40339       11.20404
C         83.09695       73.59354       10.74778
C         83.25976       72.14875       11.21966
O         84.27417       71.52985       10.92531
C         82.99741       73.67274        9.19429
C         82.65399       75.12825        8.77599
C         81.95431       72.67637        8.64579
C         82.55953       75.33562        7.26341
H         85.16525       74.13113       10.86689
H         82.13861       73.98117       11.15925
H         83.98161       73.38726        8.75928
H         83.44413       75.81118        9.15554
H         81.68664       75.43369        9.23345
H         80.94717       72.90471        9.04049
H         81.92791       72.68567        7.53894
H         82.22190       71.63660        8.91758
H         83.50995       75.03908        6.77323
H         81.71712       74.76065        6.82884
H         82.36478       76.40505        7.04627
N         82.25412       71.53550       11.91320
C         82.28624       70.13825       12.34805
C         81.72391       69.18945       11.28707
O         81.28326       69.63843       10.23969
C         81.49945       69.99710       13.66669
O         80.14069       70.29403       13.46131
H         81.40776       72.08291       12.12164
H         83.33876       69.84415       12.55425
H         81.95249       70.67760       14.42580
H         81.57612       68.96663       14.07124
H         79.87231       70.96643       14.13976
N         81.71743       67.84147       11.51282
C         81.19866       66.83825       10.57946
C         79.72187       67.03009       10.30306
O         79.33268       67.00298        9.14487
C         81.41671       65.42891       11.13821
H         82.11674       67.50482       12.40209
H         81.76163       66.89423        9.62029
H         81.04656       64.67160       10.41282
H         82.50114       65.25224       11.29931
H         80.88068       65.29529       12.10175
N         78.84061       67.23552       11.32214
C         77.42343       67.51623       11.10575
C         77.26494       68.76342       10.25393
O         76.59575       68.72191        9.23112
C         76.71715       67.72469       12.45484
H         79.20572       67.23997       12.28741
H         76.93889       66.65086       10.60162
H         77.16374       68.57381       13.01658
H         75.63760       67.93520       12.29713
H         76.80843       66.80977       13.07753
N         77.88936       69.91205       10.62957
C         77.79683       71.18675        9.91829
C         78.39544       71.14413        8.50675
O         78.22948       72.10917        7.77479
C         78.50994       72.23391       10.79423
C         78.38492       73.70016       10.38229
C         79.07409       74.57763       11.39635
O         79.69763       74.06001       12.47392
O         79.06230       75.78148       11.25095
H         78.44190       69.87476       11.49988
H         76.71878       71.45020        9.84443
H         79.58291       71.95937       10.84583
H         78.07269       72.15532       11.81547
H         77.31070       73.97942       10.33386
H         78.84552       73.87837        9.38974
N         79.10283       70.06939        8.05635
C         79.67639       69.96150        6.73064
H         80.77544       69.82660        6.81749
H         79.25179       69.06932        6.22214
H         79.47528       70.85419        6.10435
H         79.26691       69.27995        8.67957
Ca        80.21288       77.86401       13.32193
O         78.14661       75.58097       14.79667
H         77.91203       76.01321       15.65622
H         77.27451       75.35346       14.38742
O         81.32133       74.95340       14.95103
H         82.21115       74.61149       14.68428
H         81.26025       74.75221       15.91835

Ca 1.0



