%chk=holoCaM.loop4.water3.frame102.chk
%nprocshared=20
%mem=10GB
%nosave
#b3lyp/svp scf=(tight,noincore,xqc) Test 
#IOP(5/87=12) Density=Current Pop=(MK,readradii) iop(6/33=2) iop(6/42=6)

holoCaM.loop4.water3.frame102 

   -3  1 
C         84.07295        5.52155       35.57768
C         83.72982        4.17780       35.01158
O         84.60108        3.53928       34.43962
H         85.13678        5.77136       35.37226
H         83.42827        6.30104       35.12243
H         83.91878        5.50700       36.67675
N         82.46228        3.68575       35.12234
C         82.08607        2.37073       34.61436
C         80.57318        2.19375       34.66407
O         79.99820        2.27636       35.74104
C         82.76231        1.26041       35.45413
C         82.56496       -0.11718       34.88695
O         82.02104       -0.27948       33.80801
O         83.03135       -1.18453       35.56084
H         81.74486        4.28276       35.56316
H         82.42779        2.30238       33.55696
H         82.35235        1.29176       36.48658
H         83.85613        1.42237       35.52201
N         79.87051        1.95438       33.51923
C         78.41435        1.82101       33.46666
C         77.96897        0.46035       32.89559
O         76.77190        0.21833       32.84871
C         77.84526        3.06529       32.70115
C         76.30972        3.19988       32.83687
C         78.27710        3.10710       31.22052
C         75.80008        4.58644       32.42290
H         80.39603        1.90252       32.63782
H         78.00791        1.87092       34.49975
H         78.28257        3.95228       33.21416
H         76.03299        3.07137       33.90503
H         75.78940        2.42248       32.23946
H         77.87786        2.23365       30.66365
H         77.94019        4.03502       30.71963
H         79.37213        3.11907       31.13078
H         75.98609        4.80021       31.35205
H         74.70538        4.64648       32.59192
H         76.29169        5.37131       33.03840
N         78.86535       -0.46754       32.43477
C         78.48618       -1.73289       31.78893
C         79.15957       -2.98094       32.37362
O         78.82272       -4.06743       31.92209
C         78.76693       -1.61957       30.27077
C         80.19658       -1.28203       29.91577
O         81.15238       -1.23061       30.86701
O         80.46940       -0.98166       28.76599
H         79.85796       -0.22940       32.47048
H         77.39125       -1.89490       31.89631
H         78.13263       -0.78653       29.89477
H         78.45437       -2.54378       29.73705
N         80.10319       -2.93117       33.36017
C         80.72119       -4.11982       33.94575
C         81.59139       -4.95447       33.00959
O         82.07736       -5.98372       33.45742
H         80.36451       -2.02490       33.76126
H         79.91646       -4.76662       34.35541
H         81.36860       -3.80518       34.79355
N         81.83592       -4.60113       31.71560
C         82.61903       -5.40973       30.77456
C         84.12915       -5.47519       31.06789
O         84.83959       -6.06638       30.26610
C         82.32884       -4.94135       29.32639
C         82.68972       -3.51837       29.01606
O         83.28669       -2.73019       29.92730
O         82.40848       -3.06210       27.92109
H         81.39189       -3.74908       31.35610
H         82.23444       -6.45352       30.80236
H         81.23478       -5.04770       29.15442
H         82.84765       -5.60548       28.60124
N         84.69096       -4.95717       32.20149
C         86.10826       -5.07753       32.52766
C         87.01999       -4.14694       31.74897
O         88.22080       -4.20633       31.98067
H         84.09532       -4.53500       32.91836
H         86.42719       -6.13563       32.39904
H         86.24746       -4.81743       33.59883
N         86.54701       -3.26493       30.82495
C         87.39134       -2.35964       30.04955
C         86.89805       -0.91844       30.13962
O         85.86522       -0.66845       30.74751
C         87.46150       -2.86116       28.58827
C         86.08695       -3.01008       27.90833
C         86.17327       -3.56658       26.50824
N         85.03957       -3.80384       25.80967
O         87.25611       -3.82144       26.00160
H         85.53974       -3.24657       30.63739
H         88.43256       -2.37083       30.44213
H         87.94643       -3.86218       28.60261
H         88.10399       -2.18288       27.98745
H         85.57975       -2.02477       27.87659
H         85.46720       -3.72245       28.48780
H         84.11790       -3.60647       26.22034
H         85.07982       -4.19620       24.85812
N         87.60365        0.08732       29.54770
C         87.19982        1.49080       29.54291
C         86.95234        1.93217       28.10923
O         87.87937        1.95468       27.30925
C         88.28172        2.35882       30.26677
C         88.21711        3.85440       29.91836
C         88.13415        2.21881       31.78994
H         88.48064       -0.15163       29.05779
H         86.24197        1.62938       30.08798
H         89.29174        2.01240       29.95549
H         88.43201        4.01460       28.84270
H         87.22543        4.27188       30.16864
H         88.99514        4.41789       30.47669
H         88.19302        1.15828       32.10611
H         88.92724        2.79299       32.31467
H         87.15469        2.63826       32.10948
N         85.69995        2.32357       27.73109
C         85.37548        2.88740       26.42139
C         86.03091        4.25760       26.28464
O         86.60458        4.73746       27.24490
C         83.82782        3.00774       26.31375
C         83.28223        3.49119       24.99635
N         83.51584        2.80480       23.85466
O         82.59082        4.49770       24.96471
H         84.93888        2.23681       28.42090
H         85.74539        2.19502       25.63412
H         83.46186        3.67150       27.12967
H         83.38603        2.00777       26.46700
H         84.08271        1.94539       23.86086
H         83.12098        3.13172       22.96110
N         85.97531        4.96014       25.12298
C         86.47606        6.32781       25.00246
C         85.72638        7.26056       25.94416
O         86.35898        7.97919       26.70508
C         86.42130        6.86473       23.54555
C         85.07660        6.85768       22.84318
C         84.30618        8.03152       22.75790
C         84.60948        5.69418       22.20390
C         83.08727        8.03143       22.06877
C         83.39434        5.69699       21.51659
C         82.62843        6.86172       21.44573
O         81.46329        6.84636       20.76732
H         85.55191        4.50380       24.31375
H         87.55424        6.34881       25.28051
H         87.14029        6.30480       22.91002
H         86.80653        7.90863       23.57549
H         84.64714        8.94705       23.22457
H         85.19038        4.78258       22.21177
H         82.50413        8.94178       22.01256
H         83.05403        4.79263       21.02765
H         80.90763        7.63324       20.67755
N         84.36742        7.28246       25.94558
C         83.54858        8.17723       26.76013
C         83.88115        8.05014       28.24364
O         84.14240        9.06185       28.87892
C         82.06123        7.90642       26.43556
C         81.10279        8.95520       27.01402
C         79.72277        8.78167       26.43791
O         79.54499        8.88297       25.23297
O         78.67298        8.53753       27.24365
H         83.88839        6.62463       25.31466
H         83.76098        9.22247       26.44309
H         81.76010        6.88357       26.75629
H         81.96968        7.95965       25.32706
H         81.45258        9.97333       26.73845
H         81.07518        8.87398       28.12149
N         83.96535        6.82793       28.83738
C         84.37204        6.61757       30.23240
C         85.73508        7.23864       30.49975
O         85.84960        8.04441       31.41343
C         84.37466        5.10039       30.55450
C         82.93248        4.57403       30.53927
C         82.77823        3.08899       30.65053
O         83.80684        2.22877       30.74442
O         81.65226        2.63098       30.60524
H         83.77766        6.00540       28.24453
H         83.64439        7.10724       30.91928
H         84.80483        4.91007       31.56402
H         84.98918        4.56639       29.79915
H         82.43778        4.85286       29.58817
H         82.37310        5.05230       31.37385
N         86.80562        6.93969       29.72103
C         88.11161        7.52773       29.92146
H         88.81302        7.15935       29.14179
H         88.04768        8.63393       29.84252
H         88.50773        7.24464       30.91897
H         86.68329        6.29072       28.94184
Ca        82.95571        0.13202       30.80329
O         85.14144        0.67941       33.27570
H         85.26921        1.57429       32.87799
H         86.05689        0.34488       33.44656
O         84.39983       -1.99410       32.87360
H         83.56573       -2.36310       33.25645
H         85.09466       -2.18434       33.55317
O         83.45514        0.12029       27.97309
H         82.49033        0.23117       27.78416
H         83.57514       -0.84882       28.10375

Ca 1.0



