%chk=holoCaM.loop3.water2.frame257.chk
%nprocshared=20
%mem=10GB
%nosave
#b3lyp/svp scf=(tight,noincore,xqc) Test 
#IOP(5/87=12) Density=Current Pop=(MK,readradii) iop(6/33=2) iop(6/42=6)

holoCaM.loop3.water2.frame257 

   0  1 
C         47.07780       80.47395       80.39630
C         45.68463       80.46154       79.83829
O         45.03541       79.42547       79.84672
H         47.79657       80.79624       79.61468
H         47.12314       81.19292       81.24368
H         47.36831       79.47021       80.77058
N         45.14620       81.61794       79.37092
C         43.76516       81.73663       78.91972
C         43.53266       80.95533       77.62826
O         44.17657       81.25191       76.63107
C         43.43900       83.23211       78.75524
C         41.98709       83.51889       78.56688
O         41.08201       82.52878       78.47556
O         41.61963       84.67813       78.52578
H         45.73248       82.46748       79.41567
H         43.11387       81.34821       79.73506
H         44.02496       83.66903       77.91662
H         43.73414       83.75362       79.69148
N         42.64799       79.91380       77.59058
C         42.47131       79.06221       76.41050
C         41.79440       79.76710       75.23833
O         41.95215       79.28344       74.12558
C         41.72522       77.75036       76.76469
C         42.56073       76.89671       77.74369
C         41.89565       75.59450       78.21965
C         41.54588       74.60254       77.10844
N         40.99286       73.37621       77.68735
H         42.15031       79.67176       78.45965
H         43.48665       78.76829       76.06063
H         41.56742       77.16047       75.83667
H         40.73016       77.98938       77.19682
H         42.78025       77.49008       78.65544
H         43.52899       76.64475       77.26016
H         40.96945       75.81178       78.77015
H         42.60096       75.10593       78.92686
H         42.45859       74.35679       76.52427
H         40.79124       75.05192       76.42682
H         40.13184       73.59269       78.24188
H         40.74260       72.71220       76.92053
H         41.70091       72.92325       78.31057
N         41.01528       80.87849       75.39246
C         40.41870       81.59898       74.26116
C         40.83882       83.06550       74.20938
O         40.45254       83.74119       73.26513
C         38.87901       81.45128       74.25194
C         38.15121       82.01771       75.44073
O         38.81013       82.60346       76.45538
O         36.93380       81.94537       75.48178
H         40.82965       81.21218       76.34585
H         40.76729       81.15391       73.30416
H         38.63025       80.37116       74.17674
H         38.48066       81.95283       73.34179
N         41.62588       83.63282       75.16911
C         42.05100       85.02031       75.13562
C         40.87712       85.97007       75.11586
O         40.78888       86.75942       74.18588
H         41.96191       83.06919       75.95699
H         42.68697       85.18580       74.23806
H         42.67324       85.23532       76.03160
N         39.94163       85.95947       76.11123
C         38.79613       86.86703       76.13770
C         38.85926       87.85711       77.29740
O         38.01620       88.74153       77.34798
C         37.47611       86.06418       76.15357
C         37.16012       85.43502       77.49622
N         36.01401       85.75036       78.14501
O         37.93606       84.64223       78.00490
H         40.04497       85.27680       76.86961
H         38.79853       87.47286       75.20653
H         37.51682       85.27935       75.36640
H         36.64807       86.75525       75.88821
H         35.33750       86.41160       77.73697
H         35.79622       85.32831       79.05929
N         39.81355       87.76820       78.26913
C         39.93910       88.70252       79.37440
C         39.69312       88.03839       80.71144
O         40.07063       88.61988       81.71852
H         40.50145       87.00432       78.24822
H         39.25807       89.57502       79.28677
H         40.98158       89.08879       79.35010
N         39.03141       86.84707       80.80962
C         38.80581       86.14849       82.07354
C         39.37486       84.70721       82.01534
O         39.90085       84.44781       80.75136
C         37.30938       86.03471       82.39835
C         36.62186       87.36960       82.53266
C         36.31932       88.13980       81.39617
C         36.24990       87.84402       83.80116
C         35.65372       89.36163       81.52893
C         35.59457       89.07048       83.93236
C         35.29014       89.83198       82.79523
O         34.64653       91.01107       82.90740
H         38.65727       86.40932       79.95539
H         39.27529       86.70527       82.91452
H         37.23685       85.48702       83.36507
H         36.77383       85.43171       81.63689
H         36.57970       87.78881       80.40574
H         36.47347       87.26861       84.69108
H         35.41543       89.94039       80.64546
H         35.32056       89.42451       84.91804
H         34.37252       91.36678       83.76486
N         40.38727       84.44791       83.04068
C         40.68159       83.01199       83.26664
C         39.65437       82.37377       84.20914
O         39.34353       82.95247       85.24114
C         42.13274       82.90765       83.81552
C         43.11387       83.43828       82.73128
C         42.49540       81.45758       84.20424
C         44.54555       83.63117       83.22424
H         40.14527       84.90835       83.94884
H         40.68409       82.44689       82.30728
H         42.20320       83.54297       84.72601
H         42.78090       84.43475       82.37130
H         43.11093       82.74732       81.85970
H         42.42309       80.78116       83.32515
H         43.52068       81.39711       84.61951
H         41.81919       81.08233       84.99892
H         45.00277       82.68005       83.55818
H         45.16297       84.03219       82.39208
H         44.55793       84.36573       84.05725
N         39.15485       81.12952       83.94300
C         38.19077       80.42809       84.79127
C         38.85112       79.25882       85.50549
O         40.03396       79.03081       85.31312
C         37.00774       79.93897       83.93116
O         37.45032       79.00191       82.98440
H         39.51922       80.62730       83.12386
H         37.79718       81.11089       85.57464
H         36.54261       80.80037       83.40788
H         36.23940       79.47454       84.58981
H         36.65235       78.48912       82.69114
N         38.14295       78.47988       86.37020
C         38.71256       77.33029       87.06991
C         39.15459       76.25726       86.09114
O         40.29302       75.81759       86.16083
C         37.68398       76.73566       88.03858
H         37.15409       78.71881       86.54377
H         39.58108       77.66053       87.68373
H         36.77977       76.38361       87.49799
H         38.13016       75.87870       88.58827
H         37.37957       77.50330       88.78154
N         38.29208       75.80515       85.13694
C         38.61515       74.76315       84.16491
C         39.87980       75.08454       83.39944
O         40.77625       74.25409       83.34126
C         37.45628       74.61013       83.16727
H         37.35911       76.24367       85.08989
H         38.74902       73.79253       84.69119
H         37.68438       73.81278       82.42793
H         36.52163       74.33958       83.70138
H         37.28150       75.56087       82.61619
N         40.00981       76.28805       82.78745
C         41.16266       76.67492       81.98393
C         42.43822       76.60300       82.81080
O         43.35411       75.89068       82.42278
C         40.92260       78.07917       81.38830
C         39.70593       78.06932       80.42579
C         39.39394       79.43330       79.92809
O         39.50702       79.72126       78.74764
O         38.97264       80.34801       80.80445
H         39.24001       76.96135       82.91269
H         41.26966       75.96899       81.13245
H         41.82164       78.40615       80.82016
H         40.76015       78.80055       82.21824
H         38.78642       77.69128       80.91339
H         39.91753       77.42051       79.56760
N         42.54875       77.26956       83.98989
C         43.71335       77.16127       84.84256
H         44.61192       77.54550       84.31718
H         43.55861       77.75278       85.77089
H         43.87476       76.09974       85.13120
H         41.76653       77.84506       84.31136
Ca        38.98976       82.47846       80.25943
O         35.80302       82.55142       78.24956
H         36.05259       81.62947       77.99118
H         34.91258       82.69748       77.84259
O         36.12397       82.96349       81.07856
H         35.38542       83.57489       80.83148
H         35.98462       82.78322       82.04100

Ca 1.0



