%chk=holoCaM-CaMKII.loop1.water2.frame286.chk
%nprocshared=20
%mem=10GB
%nosave
#b3lyp/svp scf=(tight,noincore,xqc) Test 
#IOP(5/87=12) Density=Current Pop=(MK,readradii) iop(6/33=2) iop(6/42=6)

holoCaM-CaMKII.loop1.water2.frame286 

   0  1 
C         57.05513       34.35714       60.81908
C         58.38197       34.58854       60.15526
O         58.81541       33.74275       59.39170
H         56.26900       34.22466       60.04721
H         57.10836       33.44499       61.44988
H         56.77063       35.21363       61.46719
N         59.09208       35.71693       60.41848
C         60.39345       36.02899       59.84446
C         61.38528       36.02861       60.99484
O         61.75522       37.08101       61.49445
C         60.26789       37.37246       59.10113
C         61.51757       37.81188       58.39673
O         62.64701       37.07683       58.43059
O         61.49607       38.85222       57.76283
H         58.69887       36.39880       61.08661
H         60.71477       35.26888       59.09933
H         59.95726       38.16937       59.81000
H         59.47514       37.26775       58.32715
N         61.75028       34.83308       61.53933
C         62.46010       34.69832       62.81231
C         63.89625       35.22538       62.82352
O         64.44924       35.32737       63.90997
C         62.48401       33.21990       63.26466
C         61.08228       32.60291       63.43577
C         61.19770       31.15357       63.91893
C         59.81847       30.50545       64.08763
N         59.94998       29.13237       64.57389
H         61.40799       33.98403       61.06625
H         61.88376       35.28085       63.56549
H         63.00449       33.15608       64.24556
H         63.06006       32.62341       62.52182
H         60.52485       32.60436       62.47619
H         60.50529       33.19736       64.17719
H         61.73087       31.13799       64.89440
H         61.78474       30.56458       63.17975
H         59.28622       30.50058       63.10974
H         59.21548       31.09478       64.81361
H         60.42868       29.12669       65.50410
H         58.99869       28.71247       64.68081
H         60.49948       28.55983       63.89235
N         64.57824       35.54436       61.68844
C         65.95555       36.06155       61.68421
C         66.03681       37.45551       61.06629
O         67.13011       38.00262       61.01401
C         66.92531       35.06769       61.00192
C         66.35774       34.52668       59.73347
O         66.17998       33.32300       59.62573
O         65.84198       35.34931       58.80710
H         64.10788       35.40944       60.78160
H         66.34042       36.19124       62.71942
H         67.08622       34.20364       61.68637
H         67.91716       35.53873       60.83313
N         64.92318       38.13551       60.67118
C         64.94352       39.53694       60.29543
C         65.53056       39.85441       58.94013
O         65.55964       41.03624       58.62317
H         63.99961       37.70159       60.76336
H         65.47827       40.11034       61.08396
H         63.89503       39.90643       60.27176
N         65.98047       38.90786       58.06107
C         66.46906       39.28670       56.73288
C         65.39232       39.95670       55.87391
O         65.74808       40.53691       54.85859
C         67.13953       38.11049       55.98644
C         66.29144       36.87861       55.85634
O         65.20898       36.92019       55.30246
O         66.75302       35.70339       56.32162
H         65.97549       37.91625       58.33546
H         67.26613       40.04928       56.88120
H         68.06316       37.82581       56.53385
H         67.44162       38.44833       54.97131
N         64.07252       39.93845       56.22061
C         63.04108       40.68448       55.51314
C         62.04093       39.80056       54.81032
O         61.07436       40.34571       54.29004
H         63.77276       39.39241       57.03633
H         63.47224       41.36461       54.74840
H         62.51128       41.31587       56.25887
N         62.21652       38.45405       54.68652
C         61.30363       37.60021       53.93875
C         60.81977       36.42945       54.77167
O         61.34488       36.17513       55.85029
C         61.99140       37.09554       52.64072
C         62.31140       38.25036       51.67565
O         63.14740       36.34671       52.93535
H         63.05707       38.01856       55.08723
H         60.39726       38.17347       53.64362
H         61.29442       36.42673       52.09283
H         63.88948       36.98029       53.11784
H         61.37694       38.78348       51.39963
H         63.01359       38.97757       52.13619
H         62.77586       37.85125       50.74903
N         59.81002       35.65528       54.29616
C         59.30738       34.45237       54.94168
C         59.60873       33.30439       54.00229
O         59.23587       33.37660       52.83604
C         57.78067       34.56167       55.23376
C         57.47878       35.77169       56.15652
C         57.26884       33.25073       55.87541
C         55.98017       36.03313       56.34412
H         59.38303       35.91692       53.39145
H         59.81944       34.27840       55.91366
H         57.25254       34.71667       54.26669
H         57.90534       36.69228       55.70512
H         57.95378       35.62217       57.15100
H         56.17401       33.27155       56.03825
H         57.46128       32.38319       55.21386
H         57.77273       33.06808       56.84929
H         55.49709       36.20699       55.35869
H         55.47189       35.19247       56.85685
H         55.83624       36.93815       56.97071
N         60.26405       32.20032       54.44524
C         60.60557       31.07774       53.58135
C         59.58786       29.97016       53.73323
O         58.65800       30.10344       54.51336
C         62.04400       30.57805       53.87769
C         63.10051       31.65707       53.60646
O         62.14591       30.07915       55.19039
H         60.46904       32.12762       55.45158
H         60.55707       31.38713       52.51308
H         62.28884       29.74017       53.19322
H         62.29857       30.84178       55.80487
H         63.05495       31.97761       52.54459
H         62.93759       32.54160       54.25746
H         64.11191       31.24424       53.80792
N         59.68360       28.84920       52.97291
C         58.73198       27.74767       53.04234
C         58.72392       27.14869       54.44000
O         57.66581       27.06351       55.04643
C         59.08908       26.67932       51.97670
C         58.10268       25.50972       51.97137
O         59.06686       27.26926       50.69922
H         60.46568       28.78550       52.30377
H         57.71430       28.13151       52.79979
H         60.10100       26.25869       52.19311
H         60.00729       27.42879       50.42342
H         57.07534       25.87301       51.75481
H         58.39561       24.78131       51.18560
H         58.10496       24.98333       52.94843
N         59.88430       26.71591       55.00709
C         59.95759       26.07204       56.31544
C         59.38724       26.95586       57.41382
O         58.55134       26.48139       58.17037
C         61.42189       25.67789       56.61894
C         61.61530       24.84822       57.90470
C         60.86788       23.50333       57.86464
C         61.18210       22.64465       59.09524
N         60.44876       21.37909       59.04486
H         60.75618       26.83585       54.46846
H         59.35941       25.13957       56.25708
H         62.04318       26.59803       56.68797
H         61.80899       25.07278       55.76908
H         61.29405       25.43382       58.79284
H         62.70416       24.64355       58.00300
H         61.16713       22.94270       56.95191
H         59.77279       23.67918       57.83822
H         60.89768       23.19635       60.01846
H         62.27427       22.43441       59.13131
H         59.41846       21.56060       59.03935
H         60.71456       20.84110       58.18792
H         60.68635       20.80969       59.88876
N         59.75799       28.26312       57.52965
C         59.21490       29.16928       58.54509
C         57.69766       29.17170       58.52332
O         57.09298       28.87467       59.54465
C         59.71792       30.60947       58.31915
C         61.21530       30.75934       58.60865
C         61.74085       32.12877       58.28252
O         63.04333       32.36835       58.47388
O         61.02877       33.00465       57.82085
H         60.42434       28.63281       56.83478
H         59.53878       28.83305       59.55623
H         59.17900       31.29652       59.00368
H         59.49464       30.90927       57.27184
H         61.80001       30.03151       58.01232
H         61.39802       30.55313       59.68599
N         57.01377       29.48770       57.39371
C         55.57022       29.49446       57.34132
H         55.17102       30.24751       58.05296
H         55.23217       29.75508       56.31599
H         55.17775       28.48837       57.60129
H         57.53184       29.72026       56.54129
Ca        64.06729       34.29856       57.95952
O         65.25214       33.82902       54.62474
H         65.42683       34.50819       53.92636
H         66.09348       33.31052       54.68362
O         65.03719       31.62545       56.70988
H         65.20103       30.81304       56.17016
H         65.65805       31.54845       57.47712

Ca 1.0



