%chk=holoCaM-CaMKII.loop1.water2.frame385.chk
%nprocshared=20
%mem=10GB
%nosave
#b3lyp/svp scf=(tight,noincore,xqc) Test 
#IOP(5/87=12) Density=Current Pop=(MK,readradii) iop(6/33=2) iop(6/42=6)

holoCaM-CaMKII.loop1.water2.frame385 

   0  1 
C         49.78316      -14.54056       66.39705
C         48.38601      -15.01016       66.67951
O         47.51603      -14.17824       66.88194
H         50.47695      -15.39428       66.24289
H         49.78730      -13.91202       65.48271
H         50.15205      -13.94176       67.25588
N         48.09695      -16.34019       66.70228
C         46.76711      -16.87464       66.98932
C         46.37037      -16.51151       68.42171
O         46.89259      -17.10738       69.35470
C         46.82763      -18.40610       66.78892
C         45.62106      -19.20674       67.16185
O         44.38349      -18.68956       67.27449
O         45.79867      -20.37010       67.47146
H         48.86493      -16.99907       66.49497
H         46.04338      -16.43880       66.26538
H         47.64438      -18.77255       67.45161
H         47.12687      -18.67246       65.75331
N         45.51390      -15.47476       68.66586
C         45.20028      -15.00437       70.01495
C         44.12341      -15.81703       70.71029
O         44.02843      -15.69191       71.92420
C         44.72673      -13.53534       70.00359
C         45.78941      -12.51247       69.56931
C         46.98224      -12.46712       70.54480
C         47.90494      -11.25956       70.32215
N         48.58951      -11.30004       69.03068
H         45.19438      -14.91849       67.86325
H         46.11786      -15.07894       70.63628
H         44.39852      -13.24434       71.02669
H         43.84085      -13.45179       69.33488
H         45.29062      -11.51910       69.58238
H         46.12683      -12.71371       68.53300
H         47.57803      -13.40244       70.48393
H         46.58299      -12.37320       71.57835
H         48.66892      -11.25503       71.13140
H         47.31369      -10.32098       70.40876
H         49.20973      -10.46125       68.95666
H         49.17893      -12.16118       68.96541
H         47.90347      -11.27235       68.24395
N         43.26181      -16.63590       70.04022
C         42.23622      -17.41990       70.73127
C         42.60759      -18.89122       70.77795
O         41.86489      -19.66252       71.36931
C         40.82516      -17.15817       70.14938
C         40.59710      -17.58904       68.72364
O         41.47751      -18.11774       68.06583
O         39.38335      -17.40053       68.17122
H         43.35326      -16.73062       69.01867
H         42.17636      -17.11285       71.79809
H         40.60572      -16.07093       70.22616
H         40.08103      -17.69495       70.77823
N         43.77694      -19.34529       70.24158
C         44.23987      -20.71020       70.37543
C         43.29670      -21.70367       69.74894
O         42.84948      -22.60021       70.44909
H         44.41371      -18.69560       69.76291
H         44.38044      -20.93908       71.45389
H         45.23274      -20.80377       69.88840
N         42.96611      -21.61920       68.42871
C         42.10736      -22.58936       67.75385
C         42.84263      -23.36415       66.65829
O         42.26225      -24.30381       66.13284
C         40.81772      -21.90548       67.23951
C         40.99383      -20.81761       66.20790
O         39.90578      -20.18497       65.73056
O         42.09471      -20.49020       65.80242
H         43.34345      -20.83561       67.88567
H         41.78218      -23.35972       68.48545
H         40.29577      -21.45482       68.11135
H         40.15243      -22.68206       66.80626
N         44.11318      -23.04959       66.26940
C         44.88938      -23.80436       65.29812
C         45.13517      -23.02992       64.01974
O         45.92910      -23.48694       63.21163
H         44.58071      -22.23435       66.67327
H         44.40093      -24.76280       65.02215
H         45.86434      -24.04993       65.77299
N         44.43299      -21.89645       63.73101
C         44.56124      -21.15198       62.48265
C         44.82180      -19.67592       62.74898
O         44.79646      -19.23968       63.88732
C         43.26389      -21.33142       61.64289
C         43.17629      -22.75147       61.08073
O         42.10918      -21.09218       62.40873
H         43.72089      -21.57354       64.39294
H         45.42561      -21.52207       61.88868
H         43.27000      -20.64861       60.76504
H         42.25724      -20.26520       62.93184
H         44.04644      -22.95241       60.41950
H         43.15665      -23.50511       61.89549
H         42.25011      -22.85933       60.47661
N         45.13627      -18.86115       61.70172
C         45.43335      -17.43366       61.80607
C         44.60915      -16.69588       60.75401
O         44.58310      -17.12519       59.60972
C         46.96556      -17.22053       61.62581
C         47.70904      -17.90647       62.80874
C         47.31288      -15.71759       61.57575
C         49.23116      -17.91085       62.69377
H         45.23658      -19.29625       60.77232
H         45.17739      -17.03302       62.81314
H         47.28108      -17.68643       60.66614
H         47.40998      -18.97252       62.87350
H         47.42170      -17.40848       63.76113
H         46.80329      -15.22424       60.72345
H         47.00816      -15.21069       62.51673
H         48.39802      -15.56120       61.41751
H         49.65574      -18.44569       63.57081
H         49.53958      -18.44529       61.77100
H         49.64888      -16.88555       62.69380
N         43.95296      -15.54092       61.06836
C         43.11466      -14.80152       60.12500
C         43.82346      -13.54545       59.65008
O         44.92524      -13.26419       60.09244
C         41.76185      -14.42590       60.79212
C         41.00639      -15.64764       61.30305
O         41.98949      -13.54953       61.86583
H         44.08617      -15.14316       62.00421
H         42.91519      -15.41927       59.22235
H         41.12190      -13.92340       60.03076
H         41.15433      -13.03043       62.00545
H         41.59687      -16.15530       62.09350
H         40.03743      -15.32716       61.74415
H         40.80369      -16.35543       60.47322
N         43.22710      -12.73545       58.73022
C         43.80607      -11.47457       58.27450
C         43.99321      -10.52925       59.45194
O         45.08880      -10.01964       59.64223
C         42.91499      -10.81327       57.18581
C         42.90117      -11.65309       55.88957
O         41.61564      -10.56568       57.68256
H         42.31111      -13.02066       58.35560
H         44.80114      -11.66288       57.81109
H         43.36258       -9.83349       56.91008
H         40.94001      -11.04973       57.13986
H         42.47101      -12.66182       56.06123
H         42.29305      -11.13989       55.11436
H         43.93400      -11.76854       55.49786
N         42.95811      -10.27672       60.29863
C         43.02944       -9.36987       61.44099
C         44.12633       -9.75874       62.41568
O         44.93641       -8.90652       62.75243
C         41.66845       -9.33646       62.17825
C         40.51708       -8.72904       61.34683
C         40.73132       -7.23223       61.06456
C         39.53763       -6.61304       60.33022
N         39.74990       -5.17997       60.12288
H         42.07104      -10.77194       60.12363
H         43.26685       -8.34663       61.08792
H         41.76172       -8.73866       63.11155
H         41.39383      -10.37409       62.47252
H         39.58363       -8.83764       61.94101
H         40.37612       -9.28269       60.39417
H         41.63343       -7.07732       60.43888
H         40.86841       -6.70364       62.03312
H         38.61275       -6.76100       60.93040
H         39.40444       -7.11426       59.34553
H         40.60583       -5.02125       59.54276
H         38.92332       -4.77680       59.62625
H         39.85776       -4.69693       61.04480
N         44.21543      -11.02242       62.91095
C         45.22174      -11.43159       63.89202
C         46.62008      -11.12589       63.38658
O         47.31734      -10.36026       64.03840
C         45.05348      -12.92561       64.24258
C         43.72198      -13.15345       64.98509
C         43.43940      -14.59852       65.22272
O         43.24625      -15.05276       66.47343
O         43.30982      -15.35564       64.27724
H         43.54036      -11.71552       62.56234
H         45.07283      -10.84802       64.82898
H         45.88278      -13.26378       64.90147
H         45.09568      -13.52095       63.30586
H         42.86739      -12.75951       64.40188
H         43.75541      -12.61869       65.95910
N         47.08126      -11.64754       62.21781
C         48.37596      -11.31598       61.65532
H         48.98046      -12.23840       61.54032
H         48.23025      -10.85075       60.65722
H         48.94322      -10.59809       62.28551
H         46.48237      -12.28888       61.68481
Ca        43.25792      -17.71017       65.60146
O         39.97268      -16.77625       65.16658
H         39.44696      -16.07519       64.70570
H         40.48672      -16.28784       65.85708
O         40.54600      -18.44800       62.76203
H         39.79589      -17.85285       62.51656
H         40.11085      -19.31306       62.96288

Ca 1.0



