%chk=holoCaM-CaMKII.loop3.water1.frame375.chk
%nprocshared=20
%mem=10GB
%nosave
#b3lyp/svp scf=(tight,noincore,xqc) Test 
#IOP(5/87=12) Density=Current Pop=(MK,readradii) iop(6/33=2) iop(6/42=6)

holoCaM-CaMKII.loop3.water1.frame375 

   0  1 
C         49.34095       79.02971       36.70171
C         48.58188       79.47331       35.48760
O         49.20392       79.65388       34.45035
H         50.11679       79.78655       36.94532
H         48.67288       78.91252       37.57982
H         49.83616       78.05803       36.49491
N         47.23561       79.69520       35.54636
C         46.45702       80.16185       34.40749
C         45.97541       81.57528       34.70944
O         45.22946       81.78039       35.65709
C         45.29552       79.19359       34.11390
C         44.55539       79.62593       32.88131
O         43.40593       80.01234       32.97361
O         45.16070       79.61409       31.67613
H         46.74760       79.56566       36.44629
H         47.09992       80.18759       33.50023
H         44.60996       79.17943       34.99066
H         45.67424       78.16138       33.95566
N         46.45164       82.61028       33.96729
C         46.21199       84.02166       34.25950
C         44.75481       84.41978       34.05138
O         44.11397       84.85324       34.99827
C         47.17260       84.84640       33.37059
C         47.16117       86.36304       33.56392
C         48.22837       86.96833       32.63496
C         48.31134       88.49118       32.74012
N         49.36483       89.00463       31.86237
H         47.10644       82.37690       33.20500
H         46.49894       84.21251       35.31834
H         46.95753       84.64484       32.30513
H         48.20439       84.48386       33.58135
H         47.39820       86.60861       34.62140
H         46.15892       86.77079       33.30841
H         47.99819       86.69591       31.58022
H         49.22108       86.53986       32.89900
H         48.53635       88.77936       33.79038
H         47.33501       88.93692       32.44798
H         49.40558       90.04570       31.94293
H         50.29165       88.60804       32.14343
H         49.16459       88.74856       30.86780
N         44.19051       84.34883       32.81491
C         42.84213       84.81761       32.49089
C         41.76483       84.03213       33.25705
O         40.96869       84.66220       33.93893
C         42.67349       84.89017       30.94120
C         42.88625       83.58199       30.24853
O         42.06495       82.71135       30.35651
O         44.03005       83.29030       29.61849
H         44.78041       83.99731       32.05085
H         42.75735       85.88165       32.80936
H         43.45601       85.58826       30.57120
H         41.68691       85.31367       30.65461
N         41.72444       82.66664       33.25451
C         40.78612       81.86062       34.04583
C         39.97729       80.85954       33.22335
O         39.26579       80.05562       33.80789
H         42.44280       82.16993       32.71656
H         40.07844       82.49583       34.62140
H         41.38641       81.27823       34.77641
N         40.02596       80.86256       31.86602
C         39.28995       79.97543       30.97316
C         39.66498       78.50268       31.09087
O         38.93665       77.70254       30.51959
C         39.45706       80.46472       29.50699
C         40.88824       80.45994       28.99980
N         41.18541       81.02796       27.80908
O         41.78850       79.97305       29.66769
H         40.56127       81.59938       31.43751
H         38.21363       80.06872       31.23928
H         39.09298       81.51523       29.46906
H         38.82725       79.86559       28.81533
H         40.45023       81.46231       27.23327
H         42.15927       81.04823       27.46944
N         40.75746       78.05533       31.78679
C         41.01454       76.63503       31.99525
C         42.26634       76.08162       31.34090
O         42.42506       74.87115       31.42442
H         41.40101       78.72841       32.22042
H         40.17628       76.02938       31.59047
H         41.05161       76.43515       33.08745
N         43.18671       76.83570       30.66374
C         44.28656       76.20161       29.92870
C         45.50585       77.10796       29.75328
O         45.40942       78.18434       29.18216
C         43.79556       75.63007       28.58587
C         43.09604       76.64284       27.71631
C         43.78886       77.31684       26.69942
C         41.72638       76.89813       27.90285
C         43.12262       78.23832       25.88642
C         41.06013       77.80867       27.08150
C         41.75393       78.48268       26.07186
O         41.09699       79.36299       25.29043
H         43.07896       77.85884       30.61849
H         44.64045       75.32582       30.51558
H         43.09092       74.78857       28.76534
H         44.66154       75.18470       28.04844
H         44.84429       77.13357       26.54117
H         41.17005       76.38271       28.67597
H         43.66955       78.75787       25.11054
H         40.00341       77.99136       27.23240
H         41.54166       79.86086       24.59009
N         46.70536       76.68951       30.25458
C         47.95254       77.45320       30.24884
C         48.59587       77.43478       28.86274
O         48.77556       76.35936       28.30660
C         48.93795       76.85272       31.30856
C         48.27428       76.82628       32.71919
C         50.24841       77.66983       31.35258
C         49.09985       76.09922       33.78106
H         46.72349       75.76818       30.71501
H         47.74843       78.49451       30.58388
H         49.17838       75.80687       31.01229
H         47.30699       76.28851       32.69294
H         48.05712       77.86048       33.04991
H         50.74944       77.67432       30.36450
H         50.04168       78.72060       31.65138
H         50.97666       77.23332       32.06331
H         48.53018       76.07913       34.73453
H         49.28710       75.05098       33.46292
H         50.06366       76.60659       33.97719
N         49.05129       78.58918       28.29310
C         49.76283       78.66456       27.01652
C         51.20556       79.11942       27.23569
O         51.60374       79.29525       28.37687
C         49.00294       79.60668       26.06688
O         48.96374       80.91461       26.57558
H         48.93757       79.46542       28.81768
H         49.80785       77.66506       26.53048
H         47.97359       79.21337       25.89289
H         49.48556       79.63466       25.06822
H         48.08924       81.02340       27.03172
N         52.06219       79.29809       26.18936
C         53.47508       79.65119       26.34770
C         53.67811       80.97581       27.06511
O         54.37712       80.99990       28.06761
C         54.16875       79.71321       24.98116
H         51.70430       79.13850       25.23451
H         53.97876       78.84873       26.93303
H         55.24841       79.94490       25.11128
H         54.08356       78.73308       24.46659
H         53.71249       80.49479       24.33671
N         53.10626       82.12076       26.59598
C         53.30803       83.43415       27.20726
C         52.95292       83.42651       28.67821
O         53.74575       83.89686       29.48313
C         52.46415       84.48969       26.48237
H         52.49574       82.05149       25.76765
H         54.37486       83.73359       27.10090
H         52.63591       85.49183       26.93222
H         52.75348       84.53694       25.41105
H         51.38184       84.24774       26.55163
N         51.78471       82.87520       29.10071
C         51.37206       82.84221       30.50034
C         52.42082       82.16133       31.36081
O         52.91180       82.78072       32.29444
C         50.01406       82.13038       30.65144
C         48.90319       82.87993       29.90175
C         47.58517       82.21998       30.11043
O         47.39880       81.07154       29.74871
O         46.58958       82.90677       30.68551
H         51.17928       82.44534       28.38567
H         51.24831       83.88708       30.86589
H         49.74589       82.09537       31.73125
H         50.08667       81.08562       30.27605
H         49.09374       82.91429       28.81044
H         48.84616       83.92356       30.28038
N         52.83334       80.89542       31.08992
C         53.85367       80.23000       31.86789
H         54.79695       80.81629       31.83466
H         53.51761       80.12110       32.92016
H         54.05021       79.22086       31.44690
H         52.42637       80.39356       30.29481
Ca        44.62288       81.15206       30.09549
O         45.11531       81.47727       26.96961
H         44.95055       80.79355       26.27288
H         44.57500       82.25689       26.68531

Ca 1.0



