%chk=holoCaM.loop4.water3.frame324.chk
%nprocshared=20
%mem=10GB
%nosave
#b3lyp/svp scf=(tight,noincore,xqc) Test 
#IOP(5/87=12) Density=Current Pop=(MK,readradii) iop(6/33=2) iop(6/42=6)

holoCaM.loop4.water3.frame324 

   -3  1 
C         23.08795       33.98599      103.39646
C         24.18723       34.60714      104.20128
O         23.93464       35.59322      104.87879
H         22.13676       34.54372      103.54086
H         23.35344       34.00453      102.31974
H         22.93650       32.93708      103.72586
N         25.44868       34.08641      104.16625
C         26.54564       34.64566      104.94825
C         27.87533       33.99550      104.56644
O         28.00310       32.78198      104.65280
C         26.28908       34.45672      106.46489
C         27.25929       35.22109      107.32288
O         27.19034       35.11450      108.66270
O         28.07774       35.97369      106.82322
H         25.62832       33.28256      103.54460
H         26.59328       35.73557      104.72579
H         26.33990       33.37495      106.71317
H         25.28336       34.82293      106.74961
N         28.91775       34.77519      104.16290
C         30.23310       34.28044      103.75487
C         31.32745       34.73938      104.72636
O         32.36075       34.08651      104.78213
C         30.55454       34.83463      102.32231
C         29.45900       34.42760      101.30193
C         31.95230       34.39851      101.82370
C         29.59086       35.14461       99.95244
H         28.75979       35.78828      104.12937
H         30.23935       33.16734      103.73428
H         30.55344       35.94622      102.39453
H         28.46142       34.71038      101.69743
H         29.47051       33.32672      101.14857
H         32.75560       34.75978      102.49518
H         32.01340       33.29261      101.74471
H         32.19309       34.84538      100.84032
H         30.52860       34.87818       99.42653
H         28.74728       34.85258       99.29318
H         29.55394       36.24596      100.10003
N         31.22801       35.91851      105.40872
C         32.35878       36.57655      106.06816
C         32.21871       36.77229      107.57153
O         33.19675       37.17412      108.18748
C         32.59792       37.94345      105.37602
C         31.42048       38.91629      105.41583
O         30.25114       38.59370      106.02288
O         31.53034       39.99507      104.85850
H         30.34313       36.42318      105.36440
H         33.27314       35.95647      105.93670
H         32.83507       37.74308      104.30787
H         33.48680       38.43243      105.83063
N         31.05626       36.54062      108.23363
C         30.89430       36.71644      109.66745
C         31.26258       38.10752      110.14133
O         32.05623       38.21596      111.06537
H         30.23672       36.23143      107.70574
H         31.51240       35.96611      110.20765
H         29.83051       36.52550      109.92601
N         30.72965       39.21692      109.55618
C         30.98521       40.57852      110.02945
C         29.68267       41.30172      110.37145
O         29.71882       42.49925      110.61924
C         31.88231       41.35925      109.03537
C         31.33343       41.62205      107.66546
O         30.11887       41.19427      107.30923
O         32.00626       42.24102      106.85738
H         30.10954       39.08851      108.74253
H         31.58332       40.56220      110.96655
H         32.83318       40.79627      108.91586
H         32.12612       42.34533      109.48713
N         28.49996       40.62377      110.47167
C         27.23729       41.24473      110.83387
C         26.61670       42.08485      109.73649
O         25.53298       42.59888      109.97527
H         28.49033       39.60198      110.36567
H         27.36594       41.84144      111.76312
H         26.50263       40.43905      111.05365
N         27.20622       42.26219      108.51563
C         26.59344       43.03094      107.43754
C         26.44716       42.16758      106.15651
O         26.21874       40.82611      106.49440
C         27.44846       44.27482      107.12985
C         27.59835       45.18912      108.35903
C         28.42477       46.42230      108.08212
N         28.64978       47.31450      109.07362
O         28.89597       46.62457      106.97186
H         28.11842       41.84147      108.33061
H         25.57857       43.36843      107.74645
H         26.97456       44.85985      106.31310
H         28.45709       43.94891      106.79138
H         28.09062       44.62682      109.18122
H         26.59018       45.50974      108.70049
H         28.26327       47.16044      110.01656
H         29.21307       48.16013      108.89991
N         25.31801       42.68002      105.35745
C         24.99621       41.91011      104.14212
C         25.72216       42.48827      102.93404
O         25.41433       43.60175      102.52950
C         23.45135       41.92790      103.93949
C         23.01355       41.16095      102.68384
C         22.73167       41.32902      105.16022
H         25.38331       43.70541      105.16146
H         25.29433       40.84904      104.27406
H         23.11647       42.98382      103.82914
H         23.45677       41.61389      101.77742
H         23.31184       40.09465      102.75153
H         21.90972       41.21253      102.56714
H         21.63052       41.37544      105.01782
H         23.02638       40.26780      105.30663
H         22.97335       41.89681      106.08291
N         26.70401       41.77934      102.30693
C         27.37358       42.25186      101.09494
C         26.40997       42.16081       99.91460
O         25.32396       41.63318      100.08179
C         28.64041       41.38761      100.85440
C         29.52760       41.84648       99.72440
N         30.07425       43.08434       99.72783
O         29.77920       41.08093       98.80707
H         26.99209       40.87943      102.71564
H         27.69170       43.30392      101.26189
H         28.33431       40.33193      100.68697
H         29.26583       41.41698      101.76851
H         29.89156       43.74193      100.49893
H         30.68643       43.38542       98.95496
N         26.72627       42.65879       98.68859
C         25.86681       42.47776       97.51719
C         25.81195       41.01176       97.08276
O         24.73484       40.54281       96.74129
C         26.23531       43.46852       96.38945
C         27.68043       43.46269       95.95102
C         28.49963       44.56423       96.26183
C         28.22245       42.39417       95.22317
C         29.83752       44.58829       95.86707
C         29.56314       42.42380       94.82215
C         30.37520       43.51974       95.14687
O         31.66867       43.55892       94.76995
H         27.60149       43.18924       98.58837
H         24.82705       42.77788       97.78586
H         26.00475       44.47692       96.80095
H         25.56893       43.33044       95.51038
H         28.10592       45.40549       96.81932
H         27.60775       41.54574       94.95649
H         30.45497       45.44068       96.12108
H         29.97204       41.59671       94.25784
H         32.08023       42.84090       94.26875
N         26.91392       40.20485       97.15908
C         26.90967       38.76596       96.85387
C         26.04292       37.93976       97.80935
O         25.95024       36.73583       97.61092
C         28.34984       38.19041       96.92808
C         29.31272       38.77203       95.88336
C         28.87579       38.43946       94.48340
O         28.62892       39.32865       93.68551
O         28.75911       37.15310       94.10114
H         27.79587       40.63982       97.45370
H         26.51558       38.61922       95.82488
H         28.32794       37.08817       96.77505
H         28.75996       38.37558       97.94619
H         30.32042       38.33265       96.04329
H         29.40203       39.86755       96.01701
N         25.38804       38.50017       98.86104
C         24.59273       37.76349       99.82975
C         23.13353       38.13629       99.64437
O         22.31948       37.24512       99.44516
C         25.11058       38.08146      101.24831
C         26.59095       37.67942      101.40058
C         27.16806       38.03949      102.73946
O         28.35624       37.86064      102.94660
O         26.40576       38.58189      103.70582
H         25.46188       39.50523       99.01713
H         24.68105       36.66402       99.67814
H         24.49737       37.54151      102.00318
H         25.02131       39.17385      101.43259
H         27.19181       38.21086      100.63377
H         26.70391       36.58537      101.24124
N         22.73328       39.43788       99.63289
C         21.36570       39.82746       99.37121
H         20.69652       39.42781      100.16027
H         21.28602       40.93603       99.35640
H         21.04749       39.44328       98.37769
H         23.42115       40.18524       99.77331
Ca        28.21267       39.66213      106.21604
O         25.21881       37.91837      106.31977
H         24.72928       38.13129      107.15294
H         24.62039       38.23285      105.59700
O         28.99339       41.99935      104.31912
H         29.62735       42.36637      104.98327
H         29.34421       41.09781      104.10919
O         27.14953       38.32643      108.53695
H         26.43930       38.53223      109.19431
H         27.79822       37.76736      109.03255

Ca 1.0



