%chk=holoCaM.loop3.water2.frame172.chk
%nprocshared=20
%mem=10GB
%nosave
#b3lyp/svp scf=(tight,noincore,xqc) Test 
#IOP(5/87=12) Density=Current Pop=(MK,readradii) iop(6/33=2) iop(6/42=6)

holoCaM.loop3.water2.frame172 

   0  1 
C         19.67966       96.25228       -9.42186
C         20.92907       95.62983       -8.87636
O         22.00232       96.03710       -9.28554
H         18.77275       95.83087       -8.94126
H         19.70491       97.34634       -9.23142
H         19.62221       96.07575      -10.51637
N         20.86497       94.61640       -7.96742
C         22.03050       93.98521       -7.35884
C         22.20596       92.59208       -7.94689
O         22.12313       91.59319       -7.24565
C         21.84803       94.00691       -5.82682
C         22.96075       93.31655       -5.09928
O         24.10896       93.72168       -5.18150
O         22.68208       92.22734       -4.35905
H         19.93602       94.25663       -7.69917
H         22.96116       94.54169       -7.59935
H         20.89462       93.49604       -5.57024
H         21.78426       95.05873       -5.47077
N         22.47587       92.47828       -9.27520
C         22.68768       91.20931       -9.96504
C         23.90830       90.47375       -9.42368
O         23.75375       89.33059       -9.01764
C         22.80715       91.45299      -11.48834
C         21.49351       91.97281      -12.12565
C         20.37869       90.90787      -12.13372
C         19.09825       91.41942      -12.80608
N         18.08656       90.36234      -12.86165
H         22.53075       93.35099       -9.82291
H         21.81450       90.54970       -9.79461
H         23.08943       90.51127      -12.00682
H         23.61793       92.19340      -11.66809
H         21.71026       92.24150      -13.18228
H         21.14272       92.89279      -11.60986
H         20.11190       90.60117      -11.10300
H         20.74669       90.01736      -12.68838
H         19.32521       91.75912      -13.84041
H         18.69790       92.28385      -12.23023
H         18.44042       89.55855      -13.43044
H         17.85190       90.03153      -11.89735
H         17.22001       90.73606      -13.31142
N         25.13986       91.06232       -9.35776
C         26.32760       90.38216       -8.81274
C         26.04389       89.75649       -7.45254
O         26.22785       88.55265       -7.33702
C         27.58359       91.28997       -8.75729
C         27.39279       92.48281       -7.88181
O         28.10953       92.70611       -6.91973
O         26.41497       93.32157       -8.21604
H         25.21629       92.02798       -9.70465
H         26.58880       89.55465       -9.50930
H         27.81465       91.65597       -9.78156
H         28.45526       90.70088       -8.39842
N         25.53533       90.47665       -6.40683
C         25.13236       89.84878       -5.15410
C         25.76778       90.42873       -3.90725
O         25.43847       89.93238       -2.83833
H         25.33856       91.48066       -6.52824
H         25.35121       88.76014       -5.15975
H         24.03201       89.96136       -5.05716
N         26.66554       91.45950       -3.92415
C         27.26117       91.99403       -2.69461
C         26.26598       92.72700       -1.77912
O         26.68366       93.19541       -0.72922
C         28.50058       92.86913       -2.99633
C         28.27393       94.15360       -3.75023
N         29.32429       94.97864       -3.96533
O         27.16678       94.46010       -4.16382
H         26.97044       91.84047       -4.82895
H         27.66866       91.13327       -2.11858
H         29.23286       92.26048       -3.57053
H         28.97427       93.13166       -2.02513
H         30.26378       94.73326       -3.61890
H         29.20441       95.86747       -4.46649
N         24.93760       92.82351       -2.07538
C         23.94835       93.41439       -1.18811
C         23.90547       94.92335       -1.21878
O         23.07149       95.47305       -0.50973
H         24.57771       92.38246       -2.92124
H         24.09698       93.03588       -0.15335
H         22.94060       93.08157       -1.51933
N         24.72688       95.66920       -2.01130
C         24.66249       97.12434       -2.07614
C         24.41843       97.60130       -3.49200
O         24.47993       96.80833       -4.42638
C         25.98111       97.70727       -1.53000
C         26.16874       97.30392       -0.08793
C         27.21448       96.44492        0.28989
C         25.27759       97.77322        0.89164
C         27.35555       96.05329        1.62559
C         25.42259       97.38410        2.22426
C         26.46062       96.51879        2.59585
O         26.60499       96.12807        3.87799
H         25.43605       95.20008       -2.58865
H         23.81299       97.50298       -1.46706
H         25.99265       98.81657       -1.59570
H         26.81844       97.32312       -2.15619
H         27.91106       96.06612       -0.44814
H         24.46751       98.43924        0.62223
H         28.15808       95.38281        1.90607
H         24.72436       97.75298        2.96486
H         26.00202       96.42340        4.57544
N         24.10871       98.90798       -3.71416
C         23.91373       99.48782       -5.03482
C         24.89393      100.63564       -5.18368
O         24.91425      101.52485       -4.34037
C         22.44708       99.96181       -5.25795
C         21.46071       98.78560       -5.02379
C         22.29767      100.51555       -6.69571
C         19.98686       99.16473       -5.19595
H         24.00605       99.53319       -2.89722
H         24.10636       98.72690       -5.82141
H         22.21188      100.77320       -4.53409
H         21.58156       98.41957       -3.98206
H         21.69414       97.94602       -5.71580
H         22.50030       99.71673       -7.44180
H         21.28329      100.92105       -6.87693
H         23.00006      101.35339       -6.87997
H         19.75837       99.44848       -6.24337
H         19.35012       98.28944       -4.94866
H         19.72044      100.00275       -4.51802
N         25.70433      100.69919       -6.26820
C         26.64425      101.76620       -6.54134
C         26.13026      102.57658       -7.70495
O         25.23388      102.11789       -8.40353
C         28.02922      101.16812       -6.86410
O         27.98120      100.38020       -8.02971
H         25.58860       99.99632       -6.99176
H         26.72097      102.43624       -5.65861
H         28.40184      100.56695       -6.00250
H         28.76969      101.97613       -7.03279
H         27.82693       99.43998       -7.75361
N         26.61473      103.81943       -7.96468
C         26.11487      104.58495       -9.09745
C         26.54506      103.95930      -10.41993
O         26.00465      104.34044      -11.44808
C         26.56496      106.04300       -9.01296
H         27.31486      104.23033       -7.32616
H         25.00170      104.58289       -9.04148
H         26.13184      106.62936       -9.85064
H         26.20453      106.48552       -8.05840
H         27.67227      106.11331       -9.04597
N         27.52784      103.00898      -10.47419
C         27.93909      102.36080      -11.71147
C         26.82898      101.46877      -12.23204
O         26.36281      101.67814      -13.34294
C         29.21046      101.52789      -11.47893
H         28.02923      102.75255       -9.61191
H         28.19607      103.13977      -12.46337
H         29.53086      101.04250      -12.42493
H         30.03216      102.18768      -11.12733
H         29.05183      100.74116      -10.71108
N         26.37209      100.43341      -11.47253
C         25.34306       99.49427      -11.91093
C         24.03965      100.21149      -12.20629
O         23.51535      100.04878      -13.29900
C         25.19193       98.34100      -10.88829
C         24.64473       98.74740       -9.51135
C         24.94339       97.67259       -8.51458
O         25.72461       97.87572       -7.60648
O         24.49177       96.43438       -8.66858
H         26.80508      100.29293      -10.54784
H         25.69915       99.00303      -12.84496
H         26.21482       97.91837      -10.76000
H         24.55122       97.53074      -11.30176
H         23.55384       98.94926       -9.56420
H         25.16073       99.65985       -9.16920
N         23.49094      101.06564      -11.29705
C         22.27341      101.81318      -11.52885
H         21.54124      101.57760      -10.72896
H         22.50304      102.89929      -11.49731
H         21.81263      101.57958      -12.51105
H         23.97078      101.22797      -10.40323
Ca        25.64926       95.13428       -7.29235
O         27.87414       97.59597       -5.77533
H         27.98248       98.13231       -4.95058
H         28.78456       97.54648       -6.16204
O         28.35264       96.13471       -8.68026
H         27.72419       96.81176       -9.03454
H         29.19915       96.63106       -8.55057

Ca 1.0



