%chk=holoCaM-CaMKII.loop1.water2.frame98.chk
%nprocshared=20
%mem=10GB
%nosave
#b3lyp/svp scf=(tight,noincore,xqc) Test 
#IOP(5/87=12) Density=Current Pop=(MK,readradii) iop(6/33=2) iop(6/42=6)

holoCaM-CaMKII.loop1.water2.frame98 

   0  1 
C          4.17801       50.79532       49.81450
C          2.94076       50.82863       48.97481
O          1.91547       50.33075       49.41920
H          5.02453       51.30163       49.30550
H          3.97805       51.31867       50.77352
H          4.45617       49.74173       50.02008
N          2.94930       51.42344       47.74964
C          1.74290       51.54390       46.95181
C          1.21854       50.17159       46.55003
O          1.95976       49.38504       45.97790
C          1.97750       52.41763       45.70610
C          0.67342       52.90250       45.14458
O          0.66782       53.65780       44.18654
O         -0.47729       52.64421       45.79530
H          3.82281       51.85128       47.40514
H          1.00671       52.08387       47.59218
H          2.57709       51.87673       44.94355
H          2.52727       53.33814       46.00265
N         -0.06977       49.83692       46.82231
C         -0.66477       48.52824       46.60075
C         -1.68497       48.55102       45.46961
O         -1.68421       47.60418       44.69468
C         -1.27758       48.05586       47.93936
C         -2.00570       46.69690       47.90063
C         -1.18822       45.51598       47.35015
C          0.11413       45.24766       48.11613
N          0.81302       44.09629       47.54470
H         -0.66321       50.55239       47.24792
H          0.11897       47.79264       46.31549
H         -2.01107       48.81129       48.29897
H         -0.46258       48.00902       48.69445
H         -2.91799       46.79712       47.27390
H         -2.33856       46.45832       48.93499
H         -0.94924       45.69460       46.28245
H         -1.82948       44.60889       47.40114
H         -0.11202       45.05043       49.18703
H          0.78022       46.13493       48.05340
H          1.70920       43.94515       48.06089
H          0.22156       43.23786       47.63040
H          1.03065       44.27231       46.53634
N         -2.55078       49.59000       45.26764
C         -3.54635       49.57772       44.19072
C         -3.10206       50.34245       42.94686
O         -3.83979       50.33760       41.97080
C         -4.92682       50.02665       44.71727
C         -5.02612       51.47433       45.12315
O         -4.07900       52.23317       45.01075
O         -6.19419       51.94543       45.59773
H         -2.48134       50.42333       45.86766
H         -3.68662       48.53149       43.83963
H         -5.19244       49.39277       45.59075
H         -5.68559       49.85211       43.92446
N         -1.88508       50.95072       42.87118
C         -1.36067       51.52620       41.64457
C         -2.10359       52.74850       41.16098
O         -2.54348       52.76160       40.02014
H         -1.25283       50.93507       43.68380
H         -1.34123       50.74585       40.85149
H         -0.30940       51.84070       41.82377
N         -2.19340       53.85106       41.95372
C         -2.64856       55.15763       41.48274
C         -1.49829       56.16989       41.58133
O         -1.73005       57.35762       41.40795
C         -3.96563       55.57206       42.18919
C         -3.90083       55.81206       43.66589
O         -2.72851       55.87425       44.29744
O         -4.92958       55.96841       44.30272
H         -1.83357       53.78462       42.91553
H         -2.92561       55.11091       40.40666
H         -4.69071       54.74767       42.01349
H         -4.37696       56.49181       41.72069
N         -0.20646       55.74066       41.75478
C          0.96743       56.59966       41.73825
C          1.25466       57.31049       43.04305
O          2.28745       57.96672       43.10408
H         -0.00543       54.73230       41.78448
H          0.91077       57.31188       40.88681
H          1.85318       55.95054       41.55975
N          0.42439       57.24657       44.12297
C          0.70109       57.92385       45.38855
C          0.57681       56.97179       46.57304
O          0.23464       55.80907       46.38909
C         -0.22991       59.15202       45.54484
C          0.02774       60.20088       44.45105
O         -1.58334       58.77398       45.57076
H         -0.45950       56.73004       44.04000
H          1.74687       58.30661       45.40148
H         -0.00374       59.65748       46.50665
H         -1.85132       58.51998       44.64969
H          1.08992       60.52761       44.47923
H         -0.19035       59.79093       43.44227
H         -0.61727       61.08797       44.61960
N          0.87505       57.40612       47.82944
C          0.83617       56.57770       49.03184
C         -0.10674       57.22096       50.04344
O          0.03586       58.41112       50.30130
C          2.27550       56.44638       49.61997
C          3.25218       55.89075       48.54633
C          2.26460       55.54029       50.87028
C          4.71147       55.83446       49.00433
H          1.19521       58.38167       47.94516
H          0.48549       55.54673       48.79762
H          2.62846       57.45939       49.91796
H          3.23477       56.55805       47.65864
H          2.93035       54.87654       48.22277
H          1.58430       55.94338       51.64555
H          1.93465       54.51219       50.60528
H          3.26593       55.48563       51.34076
H          4.85283       55.11697       49.83672
H          5.34770       55.49404       48.16021
H          5.05450       56.84294       49.31989
N         -1.04068       56.48407       50.71379
C         -1.91263       57.04087       51.74762
C         -1.43271       56.62841       53.12635
O         -0.50860       55.83510       53.24812
C         -3.39587       56.60466       51.55710
C         -4.01929       57.11391       50.25688
O         -3.53009       55.20927       51.66196
H         -1.06534       55.46983       50.55430
H         -1.86443       58.15182       51.72622
H         -4.01168       57.04694       52.36775
H         -3.30004       54.81225       50.78397
H         -3.98738       58.22208       50.22014
H         -3.47580       56.69618       49.39204
H         -5.08023       56.78437       50.20148
N         -2.02605       57.16710       54.22486
C         -1.67486       56.82513       55.59908
C         -1.92758       55.35403       55.86235
O         -1.07871       54.71018       56.46091
C         -2.45669       57.70229       56.60624
C         -2.03269       59.17595       56.48967
O         -3.83967       57.57280       56.39413
H         -2.77485       57.85932       54.06977
H         -0.59330       57.02736       55.77503
H         -2.20115       57.35346       57.63382
H         -4.29189       58.02492       57.15329
H         -0.94146       59.27325       56.67712
H         -2.25686       59.58857       55.48442
H         -2.56800       59.78716       57.24556
N         -3.06541       54.74919       55.41897
C         -3.32597       53.32520       55.59671
C         -2.23822       52.49321       54.92242
O         -1.66536       51.63555       55.58030
C         -4.74027       52.97542       55.07468
C         -5.14497       51.53036       55.42661
C         -6.59503       51.17915       55.03634
C         -7.69521       51.98172       55.76628
N         -7.66185       51.79085       57.21870
H         -3.76312       55.32151       54.91865
H         -3.33308       53.10518       56.68810
H         -4.80990       53.14014       53.97638
H         -5.44839       53.66639       55.57736
H         -5.01246       51.35488       56.51473
H         -4.46593       50.83220       54.89187
H         -6.75884       50.10152       55.25654
H         -6.71805       51.32197       53.94121
H         -8.68019       51.62972       55.38623
H         -7.62352       53.06390       55.52859
H         -8.48326       52.27828       57.64495
H         -7.71929       50.77319       57.45335
H         -6.79364       52.20455       57.62624
N         -1.87824       52.71553       53.62232
C         -0.84761       51.93103       52.93040
C          0.52380       52.04188       53.59312
O          1.36756       51.20098       53.31518
C         -0.73161       52.33414       51.43728
C         -2.04726       52.08462       50.67643
C         -1.99629       52.53311       49.24252
O         -1.69707       53.80495       48.92373
O         -2.30329       51.75746       48.35644
H         -2.36409       53.46746       53.11622
H         -1.15519       50.86309       52.98315
H          0.07557       51.74697       50.94643
H         -0.45159       53.40814       51.38343
H         -2.87563       52.63141       51.15625
H         -2.29279       51.00136       50.71724
N          0.82524       53.04822       54.46197
C          2.08355       53.15526       55.17311
H          2.61138       54.07981       54.86013
H          1.87843       53.21544       56.26387
H          2.74688       52.28312       54.99704
H          0.14058       53.79097       54.62637
Ca        -2.07448       54.11547       45.45092
O         -3.13051       56.68131       46.92723
H         -2.23631       56.82259       47.32783
H         -3.61489       57.52965       47.08772
O         -4.72097       54.23059       47.76118
H         -4.77366       53.24646       47.66911
H         -5.64506       54.54573       47.59688

Ca 1.0



