%chk=holoCaM-CaMKII.loop2.water1.frame491.chk
%nprocshared=20
%mem=10GB
%nosave
#b3lyp/svp scf=(tight,noincore,xqc) Test 
#IOP(5/87=12) Density=Current Pop=(MK,readradii) iop(6/33=2) iop(6/42=6)

holoCaM-CaMKII.loop2.water1.frame491 

   -2  1 
C         77.42311       87.55958      104.40292
C         77.54891       87.95358      105.85011
O         78.11485       87.19804      106.62610
H         76.89491       88.33953      103.81254
H         78.43473       87.42549      103.96391
H         76.85685       86.61018      104.31302
N         77.06487       89.15177      106.27576
C         77.21265       89.65005      107.63928
C         76.42675       88.82849      108.65147
O         75.21624       88.71650      108.51502
C         76.74656       91.11765      107.69509
C         76.89923       91.70390      109.06621
O         77.99377       91.73433      109.60582
O         75.82031       92.19222      109.70651
H         76.61795       89.76542      105.57603
H         78.29140       89.64486      107.90052
H         75.68018       91.18656      107.38604
H         77.35519       91.71895      106.98569
N         77.05837       88.28815      109.73655
C         76.36524       87.59290      110.81783
C         76.57177       88.26197      112.18508
O         76.00863       87.76124      113.14880
C         76.87280       86.14661      110.87378
H         78.08151       88.38414      109.80866
H         75.27129       87.56543      110.62322
H         77.96353       86.12583      111.09020
H         76.34299       85.57243      111.66389
H         76.69529       85.64143      109.90050
N         77.39286       89.34332      112.36810
C         77.73631       89.88605      113.69117
C         77.61208       91.41652      113.80527
O         77.88063       91.93100      114.88237
C         79.15263       89.40588      114.06642
C         80.12197       89.66234      112.96810
O         80.69474       88.72712      112.42953
O         80.30244       90.90066      112.49914
H         77.89607       89.72911      111.55815
H         77.06587       89.47068      114.47395
H         79.12210       88.30610      114.23237
H         79.50103       89.88241      115.00642
N         77.16575       92.20286      112.78447
C         76.88976       93.63314      112.91954
C         78.08387       94.57474      113.04408
O         77.83883       95.76831      113.15252
H         76.89081       91.75569      111.90504
H         76.21541       93.78302      113.79105
H         76.33651       93.96405      112.01430
N         79.38221       94.15813      113.02739
C         80.51912       95.08321      113.14913
C         80.71228       96.02709      111.94263
O         81.61860       96.84734      112.00097
C         81.83093       94.30126      113.41230
C         82.25454       93.41276      112.27493
N         83.40919       92.71549      112.34744
O         81.55864       93.32045      111.27899
H         79.56675       93.15099      112.97899
H         80.35232       95.70762      114.05525
H         81.71197       93.67700      114.32442
H         82.65034       95.02815      113.60331
H         84.01338       92.77666      113.17886
H         83.70425       92.12147      111.56108
N         79.91946       95.98657      110.82914
C         80.06556       96.90253      109.69843
C         81.23474       96.61515      108.75734
O         81.36555       97.33842      107.78071
H         79.12922       95.33066      110.79460
H         80.11345       97.94825      110.07440
H         79.15126       96.82146      109.07190
N         82.09906       95.58023      108.95467
C         83.20183       95.22453      108.06144
C         83.07622       93.78647      107.58442
O         82.96967       92.88823      108.40699
C         84.56280       95.37612      108.78505
C         84.95831       96.84133      108.93928
O         84.53653       94.76841      110.05324
H         81.97975       95.00435      109.78659
H         83.23010       95.88065      107.16378
H         85.36806       94.92406      108.15538
H         84.80438       93.82091      109.93547
H         85.04739       97.31033      107.93458
H         84.20966       97.39765      109.53855
H         85.95021       96.90627      109.43547
N         83.18139       93.49213      106.25382
C         83.28399       92.12221      105.74869
C         84.54744       91.50234      106.33523
O         85.62462       92.05707      106.16375
C         83.31977       92.08407      104.18709
C         82.00830       92.68045      103.60318
C         83.51924       90.63549      103.68468
C         81.99996       92.78093      102.07608
H         83.27424       94.27341      105.58853
H         82.38743       91.54671      106.06881
H         84.18351       92.69388      103.83986
H         81.86124       93.71148      103.98273
H         81.13666       92.07221      103.93115
H         84.45761       90.20023      104.08103
H         82.66823       89.99273      103.99416
H         83.61670       90.59654      102.58228
H         82.04054       91.78216      101.59791
H         81.05751       93.26640      101.74607
H         82.85678       93.39544      101.72732
N         84.47376       90.35258      107.05711
C         85.62056       89.73925      107.72558
C         86.29054       88.76939      106.78986
O         85.82341       88.60468      105.67232
C         85.15541       88.93061      108.95663
C         84.29507       89.71512      109.88186
O         83.17055       90.25264      109.39063
O         84.55146       89.78881      111.07287
H         83.55823       89.88811      107.12494
H         86.33137       90.52665      108.06265
H         86.02419       88.52395      109.51726
H         84.53197       88.07930      108.60760
N         87.37471       88.04920      107.18191
C         87.92340       87.00224      106.34189
C         86.91413       85.85102      106.20421
O         86.59197       85.54168      105.06702
C         89.32603       86.56785      106.81850
C         89.95410       85.56716      105.87955
C         90.20977       85.90585      104.53704
C         90.30023       84.28654      106.34048
C         90.79564       84.97675      103.67425
C         90.88787       83.36099      105.47358
C         91.13480       83.70527      104.14189
H         87.80555       88.23792      108.10099
H         88.09570       87.44329      105.33443
H         89.30614       86.16458      107.84138
H         89.98311       87.46416      106.85499
H         89.96132       86.88787      104.15510
H         90.11518       84.00385      107.36937
H         90.98849       85.24462      102.64334
H         91.15261       82.37648      105.83542
H         91.59061       82.98782      103.47263
N         86.33160       85.18546      107.26685
C         85.37808       84.08528      107.10113
C         84.10356       84.42761      106.34388
O         83.34795       83.51447      106.03825
C         84.99177       83.70321      108.53579
C         86.23967       84.06127      109.30309
C         86.60667       85.40051      108.67275
H         85.92723       83.26526      106.58727
H         84.20056       84.39979      108.90413
H         84.62336       82.66212      108.65759
H         86.11819       84.09022      110.40686
H         87.02707       83.31766      109.04233
H         85.94007       86.20284      109.04687
H         87.65093       85.61498      108.92993
N         83.77918       85.71345      106.03514
C         82.59334       86.08476      105.27945
C         82.95905       86.12394      103.81333
O         82.32461       85.43704      103.02585
C         82.03701       87.43429      105.77731
C         81.58486       87.33345      107.24606
C         80.98027       88.59891      107.78277
O         80.53658       88.61776      109.05212
O         80.87568       89.60169      107.09374
H         84.40776       86.47466      106.32416
H         81.78229       85.33319      105.41754
H         81.16026       87.71577      105.15320
H         82.81009       88.22451      105.67341
H         82.45026       87.06811      107.88874
H         80.82075       86.53244      107.33588
N         84.01908       86.86547      103.38846
C         84.48972       86.89489      102.02096
H         85.52667       86.49614      101.98867
H         83.85904       86.28383      101.34319
H         84.49849       87.94306      101.65845
H         84.55180       87.41062      104.07330
Ca        81.48118       90.78119      110.65526
O         79.66254       93.73025      108.49183
H         79.53953       93.33207      107.59443
H         78.79000       94.15128      108.69671

Ca 1.0



