%chk=holoCaM.loop2.water2.frame279.chk
%nprocshared=20
%mem=10GB
%nosave
#b3lyp/svp scf=(tight,noincore,xqc) Test 
#IOP(5/87=12) Density=Current Pop=(MK,readradii) iop(6/33=2) iop(6/42=6)

holoCaM.loop2.water2.frame279 

   -2  1 
C         49.62170       95.32595       27.81541
C         50.52262       94.56828       26.88059
O         50.40958       93.35624       26.78914
H         48.90849       94.64283       28.32482
H         50.22680       95.85287       28.58186
H         49.03571       96.07563       27.24053
N         51.42964       95.24160       26.12170
C         52.28101       94.60253       25.11769
C         53.30315       93.65091       25.71567
O         53.68780       93.80793       26.86714
C         52.97613       95.68852       24.28382
C         53.95282       95.20497       23.24268
O         55.08975       95.64290       23.31297
O         53.65958       94.34448       22.22700
H         51.46208       96.26877       26.22322
H         51.63023       94.03592       24.43507
H         53.52837       96.35398       24.98681
H         52.21529       96.31828       23.79366
N         53.76714       92.61306       24.95610
C         54.75091       91.63870       25.40712
C         55.83197       91.30980       24.36221
O         56.80174       90.68005       24.75416
C         54.03019       90.35006       25.81647
H         53.33852       92.48541       24.03601
H         55.26213       92.03527       26.31208
H         53.28162       90.57187       26.60805
H         53.50268       89.90269       24.94720
H         54.75037       89.60736       26.22049
N         55.72107       91.62190       23.02678
C         56.73311       91.25277       22.02340
C         57.24786       92.44223       21.20724
O         58.12874       92.24312       20.37946
C         56.16929       90.15968       21.08433
C         55.01838       90.58386       20.20591
O         54.55347       91.84464       20.22090
O         54.51173       89.77297       19.44795
H         54.87114       92.07600       22.68407
H         57.61503       90.80803       22.53069
H         55.84066       89.30013       21.70706
H         56.98469       89.80491       20.41674
N         56.74743       93.69568       21.36674
C         57.18118       94.85794       20.61214
C         56.89696       94.73265       19.13214
O         57.82598       94.83517       18.34503
H         56.02912       93.85012       22.07366
H         58.26425       95.03141       20.79079
H         56.63063       95.75208       20.97993
N         55.62143       94.55065       18.68345
C         55.25667       94.52367       17.26576
C         54.29242       95.65816       16.90875
O         53.78254       95.67224       15.79612
C         54.70841       93.13611       16.86194
C         53.41533       92.69278       17.49414
N         52.87054       91.51614       17.11378
O         52.85095       93.37520       18.33364
H         54.86997       94.45688       19.38264
H         56.15565       94.66691       16.62727
H         55.48222       92.36937       17.08452
H         54.54868       93.14193       15.76138
H         53.32843       90.92724       16.40337
H         51.98514       91.19445       17.51852
N         54.04923       96.68301       17.77716
C         53.19425       97.82220       17.48011
C         51.70086       97.53846       17.48295
O         50.95869       98.48780       17.27670
H         54.56625       96.72013       18.66513
H         53.50082       98.27115       16.51035
H         53.35833       98.58861       18.26895
N         51.17278       96.29973       17.71545
C         49.73034       96.03391       17.74537
C         49.31540       95.40851       19.07546
O         50.18289       95.05773       19.85979
C         49.34250       95.11307       16.55906
C         49.64730       95.76936       15.20075
O         49.96796       93.85496       16.66252
H         51.80754       95.50964       17.86820
H         49.16248       96.98342       17.64321
H         48.24555       94.94082       16.58158
H         50.90826       93.94582       16.35721
H         49.10121       96.73209       15.10959
H         50.73491       95.96633       15.08570
H         49.32446       95.09974       14.37576
N         47.99416       95.19793       19.37241
C         47.53764       94.49532       20.57331
C         47.07347       93.11905       20.14738
O         46.12561       92.98548       19.38581
C         46.44310       95.28182       21.37028
C         47.09289       96.48820       22.09711
C         45.73927       94.36486       22.40024
C         46.12393       97.35639       22.90412
H         47.28345       95.47054       18.67703
H         48.38654       94.34235       21.27241
H         45.66384       95.63400       20.65980
H         47.60247       97.13533       21.35254
H         47.84645       96.10860       22.81481
H         46.46461       93.97152       23.14082
H         44.92583       94.89385       22.93231
H         45.23748       93.51389       21.89800
H         45.65585       96.78690       23.73348
H         46.68764       98.18949       23.37509
H         45.33636       97.77581       22.24677
N         47.75648       92.04101       20.61287
C         47.47247       90.65625       20.25784
C         46.26136       90.17310       21.04040
O         45.73462       90.93972       21.83174
C         48.72395       89.79769       20.57598
C         49.96727       90.50347       20.07297
O         50.82172       90.98743       21.00108
O         50.08786       90.79246       18.89576
H         48.56271       92.22411       21.22249
H         47.29984       90.59812       19.15994
H         48.63163       88.77469       20.15342
H         48.81912       89.71038       21.68182
N         45.75405       88.91808       20.88912
C         44.60940       88.46738       21.67524
C         44.91770       88.37679       23.17399
O         44.15882       88.96973       23.92976
C         44.04845       87.11428       21.19519
C         42.78726       86.79591       21.97572
C         41.63172       87.58407       21.81008
C         42.76934       85.74519       22.90843
C         40.48417       87.32585       22.56459
C         41.62044       85.49601       23.66732
C         40.47948       86.28494       23.49535
H         46.17024       88.28830       20.18707
H         43.79217       89.20757       21.51677
H         44.81068       86.32581       21.33973
H         43.80635       87.14689       20.11142
H         41.61959       88.40210       21.10050
H         43.65021       85.13605       23.06646
H         39.60101       87.93830       22.43271
H         41.61672       84.69577       24.39560
H         39.59277       86.09279       24.08572
N         45.95282       87.64414       23.71039
C         46.14157       87.47239       25.14846
C         46.46583       88.77611       25.84654
O         46.34410       88.84750       27.06098
C         47.28796       86.45776       25.24747
C         48.09637       86.77216       24.00457
C         46.99850       86.97221       22.96208
H         45.22524       87.04909       25.61558
H         47.85122       86.46045       26.20591
H         46.86799       85.43916       25.08989
H         48.60782       87.74740       24.17188
H         48.86522       86.02203       23.72228
H         47.42851       87.58009       22.14388
H         46.61706       85.99942       22.59012
N         46.90190       89.84506       25.13837
C         47.17245       91.14469       25.72369
C         45.85735       91.83505       25.99648
O         45.62196       92.24484       27.12403
C         48.07985       91.92830       24.76740
C         49.41438       91.16331       24.65345
C         50.36967       91.76640       23.70506
O         50.09479       92.77940       23.08433
O         51.54002       91.13843       23.50324
H         47.06575       89.73255       24.12727
H         47.74692       91.03980       26.67304
H         48.26708       92.95203       25.15831
H         47.60280       92.01188       23.76587
H         49.24989       90.13019       24.28898
H         49.90406       91.10255       25.64763
N         44.92341       91.93525       25.01015
C         43.60332       92.49578       25.19855
H         42.84655       91.70357       25.01124
H         43.45311       92.88718       26.22545
H         43.44484       93.31826       24.47184
H         45.13740       91.55279       24.08177
Ca        52.16467       92.85378       21.27970
O         52.94070       96.23792       20.45302
H         52.06126       96.60414       20.70973
H         53.59490       96.83676       20.89280
O         50.30077       95.77950       22.42681
H         49.97546       95.33989       23.25029
H         50.21217       96.74887       22.60677

Ca 1.0



