%chk=holoCaM-CaMKII.loop3.water2.frame126.chk
%nprocshared=20
%mem=10GB
%nosave
#b3lyp/svp scf=(tight,noincore,xqc) Test 
#IOP(5/87=12) Density=Current Pop=(MK,readradii) iop(6/33=2) iop(6/42=6)

holoCaM-CaMKII.loop3.water2.frame126 

   0  1 
C         15.87771       49.95189       77.39749
C         15.73556       48.80070       78.34646
O         15.08651       47.82322       78.01096
H         16.95048       50.09050       77.14867
H         15.31152       49.76643       76.46009
H         15.48996       50.87852       77.87148
N         16.30282       48.86954       79.57983
C         16.21847       47.81082       80.57475
C         15.23671       48.24996       81.63086
O         15.61233       48.58408       82.74542
C         17.63632       47.47976       81.07625
C         17.70698       46.41328       82.13991
O         18.29545       46.66635       83.17719
O         17.17939       45.17854       81.97635
H         16.78928       49.74014       79.84554
H         15.80058       46.89298       80.13225
H         18.11675       48.40530       81.46300
H         18.23514       47.13405       80.21587
N         13.91707       48.28080       81.29346
C         12.85592       48.73630       82.17803
C         12.77112       47.84219       83.40213
O         12.89224       48.34911       84.50875
C         11.49133       48.80104       81.44096
C         11.55956       49.68628       80.17663
C         10.18071       49.93286       79.55184
C         10.27028       50.63438       78.18040
N         10.98932       51.90940       78.23385
H         13.66832       47.96488       80.34576
H         13.08821       49.77804       82.49593
H         10.74775       49.23289       82.14687
H         11.14511       47.78559       81.14776
H         12.19662       49.19802       79.41175
H         12.00705       50.66661       80.44429
H          9.56997       50.54231       80.25322
H          9.66306       48.96206       79.39104
H          9.23576       50.81166       77.81147
H         10.77872       49.96257       77.45308
H         11.99976       51.75076       78.45016
H         10.93631       52.36713       77.29515
H         10.56199       52.54199       78.94760
N         12.58949       46.49232       83.27695
C         12.50174       45.59262       84.43157
C         13.75460       45.59078       85.30581
O         13.68416       45.08428       86.41738
C         12.17412       44.14378       84.00566
C         13.28183       43.49565       83.21413
O         13.89506       42.39699       83.69209
O         13.62301       43.94932       82.13533
H         12.48102       46.10792       82.32735
H         11.65647       45.96299       85.05366
H         11.23874       44.13001       83.40658
H         11.99743       43.53710       84.92097
N         14.92907       46.13393       84.88187
C         16.10457       46.24819       85.72206
C         16.68074       44.91528       86.13477
O         16.79419       44.68700       87.33063
H         14.99552       46.52052       83.93368
H         15.84875       46.85389       86.61977
H         16.88929       46.80412       85.17499
N         17.11411       44.00772       85.20676
C         17.79428       42.76529       85.57879
C         19.23382       42.69671       85.07935
O         19.92728       41.78043       85.50347
C         17.00618       41.51314       85.13458
C         16.91439       41.27745       83.64253
N         16.34266       40.14065       83.18483
O         17.36493       42.08499       82.84495
H         16.97652       44.22297       84.21271
H         17.86275       42.71217       86.68670
H         15.98077       41.55258       85.56030
H         17.51824       40.62741       85.57071
H         15.97141       39.43811       83.84083
H         16.28786       39.95091       82.17463
N         19.76484       43.59377       84.19361
C         21.16169       43.56062       83.78752
C         21.38925       43.26244       82.31882
O         22.54968       43.20647       81.94552
H         19.18015       44.34390       83.80380
H         21.72315       42.78726       84.35303
H         21.62275       44.54232       84.03214
N         20.37284       43.07166       81.41928
C         20.65268       42.77848       80.00704
C         19.43908       42.99165       79.11847
O         18.32170       42.97121       79.60778
C         21.23331       41.35069       79.84334
C         20.24739       40.25697       80.20791
C         20.32250       39.60713       81.45287
C         19.25432       39.86140       79.29324
C         19.41418       38.59272       81.77906
C         18.35684       38.83919       79.61667
C         18.42933       38.20423       80.85935
O         17.55114       37.22442       81.15596
H         19.40334       43.18697       81.73421
H         21.39968       43.53030       79.67006
H         22.13164       41.25967       80.48774
H         21.59232       41.17830       78.80558
H         21.07635       39.89121       82.17611
H         19.18198       40.33354       78.32172
H         19.47784       38.10725       82.74491
H         17.60331       38.53956       78.89865
H         17.56406       36.75862       82.00425
N         19.61291       43.27851       77.78888
C         18.48944       43.58137       76.90129
C         18.48952       42.71814       75.65001
O         19.46242       42.04032       75.36324
C         18.44260       45.09974       76.54981
C         19.71815       45.57015       75.80170
C         18.20608       45.90931       77.83239
C         19.68120       47.04414       75.38918
H         20.57023       43.34597       77.41805
H         17.55295       43.33595       77.42625
H         17.56457       45.27774       75.89031
H         19.83109       44.96813       74.87509
H         20.61903       45.41510       76.43217
H         19.06779       45.79953       78.52373
H         18.05175       46.98438       77.61482
H         17.28501       45.55562       78.33935
H         18.79505       47.24810       74.75221
H         19.66255       47.71184       76.27487
H         20.59953       47.28833       74.81504
N         17.36122       42.68724       74.87989
C         17.20707       41.90484       73.65862
C         16.67816       42.78365       72.52671
O         16.45388       43.96641       72.73229
C         16.23858       40.74141       73.93923
O         14.96190       41.20930       74.28866
H         16.54132       43.21171       75.20694
H         18.17945       41.46539       73.34888
H         16.65372       40.09054       74.74419
H         16.13986       40.08787       73.04795
H         14.94885       41.30919       75.27610
N         16.43299       42.24536       71.29516
C         15.85625       43.00422       70.18570
C         14.46875       43.52109       70.51668
O         14.13756       44.61927       70.09057
C         15.77253       42.13925       68.92622
H         16.65599       41.25128       71.14346
H         16.52009       43.86494       69.94503
H         15.36313       42.73669       68.08229
H         16.78704       41.78819       68.64259
H         15.11633       41.25925       69.09596
N         13.60267       42.78772       71.27440
C         12.28579       43.27709       71.66930
C         12.42393       44.55159       72.47820
O         11.85611       45.56786       72.10361
C         11.54594       42.21801       72.50119
H         13.90336       41.85711       71.60402
H         11.67653       43.47491       70.75926
H         12.10834       41.96298       73.42523
H         10.54079       42.59201       72.79269
H         11.41529       41.29001       71.90600
N         13.18442       44.55947       73.60713
C         13.35722       45.73454       74.45576
C         14.12458       46.86820       73.77563
O         14.19782       47.93989       74.36180
C         14.11850       45.33290       75.72691
C         13.33300       44.35191       76.61547
C         14.20926       43.94274       77.75343
O         15.20202       43.27139       77.54100
O         13.98423       44.41584       78.98758
H         13.64186       43.67688       73.88118
H         12.35228       46.11646       74.74283
H         14.32922       46.23309       76.33530
H         15.09239       44.89975       75.42002
H         13.00885       43.43911       76.07341
H         12.43142       44.87815       76.99637
N         14.74205       46.71178       72.57066
C         15.48108       47.76229       71.89981
H         16.53457       47.43923       71.76284
H         15.03134       47.94488       70.90123
H         15.47649       48.71665       72.46631
H         14.71542       45.80401       72.10098
Ca        15.78839       44.51455       80.33219
O         15.82980       40.91830       79.72812
H         16.29661       40.83882       78.85907
H         15.40545       40.03351       79.86254
O         12.98645       41.33115       80.66146
H         12.75164       40.37792       80.53376
H         12.12184       41.77973       80.83827

Ca 1.0



