%chk=holoCaM-CaMKII.loop3.water2.frame103.chk
%nprocshared=20
%mem=10GB
%nosave
#b3lyp/svp scf=(tight,noincore,xqc) Test 
#IOP(5/87=12) Density=Current Pop=(MK,readradii) iop(6/33=2) iop(6/42=6)

holoCaM-CaMKII.loop3.water2.frame103 

   0  1 
C         35.95595       41.32880       53.44784
C         36.62847       41.30821       54.78838
O         37.57151       40.55216       54.97199
H         35.11388       42.05399       53.42884
H         36.68915       41.62706       52.66980
H         35.55673       40.32059       53.21681
N         36.20732       42.14462       55.77277
C         36.83879       42.21319       57.08195
C         36.58541       40.92722       57.86438
O         35.43651       40.61171       58.14127
C         36.30222       43.45570       57.80140
C         36.96070       43.75158       59.09709
O         36.63408       44.88668       59.71123
O         37.80531       43.02103       59.58114
H         35.43475       42.79582       55.55856
H         37.93133       42.37382       56.93013
H         35.20567       43.37527       57.96452
H         36.49513       44.33496       57.14630
N         37.62377       40.10507       58.19359
C         37.43850       38.77239       58.77457
C         37.07585       38.80008       60.26471
O         36.63124       37.78195       60.77459
C         38.73778       37.96217       58.56096
C         38.61646       36.44697       58.77403
C         39.97248       35.77107       58.51395
C         39.87184       34.24438       58.61722
N         41.17866       33.62060       58.40621
H         38.56845       40.38996       57.89627
H         36.63180       38.27729       58.18867
H         39.52331       38.37991       59.22666
H         39.05336       38.09798       57.50179
H         37.86097       36.04878       58.06130
H         38.29561       36.21423       59.80935
H         40.71095       36.14554       59.25695
H         40.33363       36.03181       57.49440
H         39.15870       33.87147       57.84819
H         39.48854       33.95919       59.62157
H         41.07551       32.58141       58.45776
H         41.55597       33.87667       57.46471
H         41.84709       33.93047       59.14882
N         37.32590       39.89761       61.03922
C         37.10869       39.95888       62.49293
C         36.19294       41.11123       62.90380
O         35.89656       41.21960       64.08614
C         38.45707       40.09002       63.25392
C         39.19950       41.34477       62.87969
O         39.39328       42.23586       63.68941
O         39.62585       41.46271       61.61610
H         37.73321       40.71330       60.57437
H         36.63101       39.01696       62.84107
H         39.10392       39.21214       63.03426
H         38.25623       40.08914       64.34794
N         35.71009       42.01212       62.00331
C         34.82258       43.10431       62.35726
C         35.44264       44.13927       63.27848
O         34.86593       44.40160       64.32409
H         35.93486       41.91294       61.00624
H         33.89785       42.68713       62.81357
H         34.52689       43.63171       61.42497
N         36.57531       44.81727       62.92457
C         37.10341       45.95960       63.67836
C         37.13357       47.24903       62.83998
O         37.64014       48.24851       63.33153
C         38.50653       45.66547       64.26731
C         39.64286       45.52649       63.28122
N         40.91967       45.64958       63.71117
O         39.42720       45.33477       62.09760
H         37.05835       44.53502       62.06285
H         36.45477       46.17053       64.55554
H         38.48372       44.77540       64.93219
H         38.75404       46.53787       64.91065
H         41.12532       45.83708       64.70338
H         41.70456       45.59441       63.04534
N         36.63081       47.30403       61.57182
C         36.67431       48.48311       60.71955
C         37.79288       48.44274       59.68350
O         37.88105       49.38862       58.91514
H         36.15469       46.48757       61.19051
H         36.80984       49.40211       61.32889
H         35.69261       48.58187       60.20645
N         38.71840       47.43483       59.63670
C         39.88782       47.44327       58.75045
C         40.02231       46.15156       57.94933
O         39.44969       45.14052       58.31892
C         41.14623       47.61498       59.62605
C         41.17280       48.97217       60.28423
C         41.52771       50.10266       59.53056
C         40.85000       49.12590       61.64321
C         41.56843       51.36586       60.12639
C         40.87386       50.39441       62.23359
C         41.23762       51.51673       61.48049
O         41.26745       52.73099       62.06627
H         38.64516       46.66779       60.31118
H         39.82624       48.28429       58.02617
H         42.08504       47.49347       59.04222
H         41.13759       46.81161       60.39654
H         41.78868       50.00141       58.48428
H         40.56460       48.27008       62.24135
H         41.85728       52.22540       59.53452
H         40.61110       50.50541       63.27820
H         41.52103       53.52984       61.58168
N         40.80011       46.13484       56.82381
C         41.07437       44.94696       56.00983
C         42.58680       44.80378       55.85619
O         43.22197       45.74909       55.41094
C         40.42859       45.07575       54.59331
C         38.88783       45.22386       54.69190
C         40.79414       43.84443       53.72541
C         38.22189       45.51976       53.34263
H         41.21723       47.02619       56.51562
H         40.64809       44.03328       56.48015
H         40.83874       45.98812       54.10595
H         38.64235       46.07601       55.35946
H         38.44227       44.30250       55.12796
H         40.40391       43.93418       52.69390
H         41.89244       43.74029       53.61508
H         40.39756       42.91120       54.18175
H         38.35290       44.68967       52.62031
H         37.13047       45.65838       53.48810
H         38.64165       46.45192       52.90712
N         43.21351       43.62153       56.12742
C         44.64288       43.39406       55.89903
C         44.85544       42.35650       54.79844
O         43.88854       41.88475       54.22829
C         45.31419       42.96894       57.21402
O         44.84870       41.71702       57.64115
H         42.64730       42.83384       56.46819
H         45.13794       44.33018       55.56223
H         45.15376       43.74586       57.99640
H         46.41352       42.90110       57.08303
H         44.06767       41.88612       58.22622
N         46.11335       41.96954       54.43527
C         46.39728       41.00551       53.36879
C         45.77498       39.64748       53.63446
O         45.05951       39.14698       52.77724
C         47.91149       40.83171       53.20749
H         46.91085       42.39510       54.92930
H         46.00469       41.40019       52.40489
H         48.12815       40.11723       52.38405
H         48.37924       41.80681       52.95726
H         48.36808       40.44620       54.14436
N         45.99636       39.00096       54.81253
C         45.42947       37.69510       55.14616
C         43.93044       37.67721       54.93931
O         43.40230       36.73552       54.36544
C         45.72157       37.37041       56.62118
H         46.56393       39.48643       55.52549
H         45.89270       36.90279       54.51844
H         45.26848       38.13613       57.29029
H         45.30041       36.37827       56.89268
H         46.81614       37.34901       56.80465
N         43.19087       38.70897       55.41025
C         41.73623       38.76121       55.38559
C         41.22197       38.76091       53.95778
O         40.49778       37.84415       53.59489
C         41.26394       39.98133       56.21455
C         41.77543       39.80700       57.66556
C         41.47400       40.89176       58.64215
O         41.84583       40.72768       59.79335
O         40.83183       42.03228       58.33181
H         43.71202       39.49107       55.82996
H         41.33863       37.85401       55.89634
H         40.15520       40.02999       56.21055
H         41.65610       40.91699       55.76871
H         42.87414       39.70748       57.70716
H         41.36225       38.86140       58.06281
N         41.58820       39.73587       53.08236
C         41.19770       39.75885       51.68748
H         40.64345       40.69587       51.47363
H         42.11151       39.73192       51.05574
H         40.55954       38.89425       51.40941
H         42.19370       40.49398       53.40826
Ca        40.44241       43.06895       60.29008
O         42.17871       43.01983       62.69295
H         41.91494       43.03776       63.64689
H         43.16014       42.89962       62.70902
O         42.75458       44.65828       59.64820
H         43.51669       45.23212       59.38774
H         42.73801       43.94138       58.96634

Ca 1.0



