%chk=holoCaM-CaMKII.loop4.water2.frame186.chk
%nprocshared=20
%mem=10GB
%nosave
#b3lyp/svp scf=(tight,noincore,xqc) Test 
#IOP(5/87=12) Density=Current Pop=(MK,readradii) iop(6/33=2) iop(6/42=6)

holoCaM-CaMKII.loop4.water2.frame186 

   -3  1 
C         -9.37998       43.55394        9.17759
C         -9.45525       42.10984        9.53966
O         -8.96041       41.26426        8.80781
H         -8.79385       44.10080        9.94561
H         -8.91527       43.68600        8.18080
H        -10.41457       43.95851        9.15503
N        -10.10654       41.75977       10.67392
C        -10.28770       40.38940       11.09648
C        -11.06196       39.58825       10.03713
O        -12.13909       39.98936        9.62418
C        -11.02672       40.38431       12.44358
C        -11.00667       39.04989       13.07811
O        -10.30446       38.06689       12.50769
O        -11.55765       38.88491       14.14334
H        -10.49579       42.51317       11.26242
H         -9.27383       39.94752       11.26651
H        -12.06586       40.74437       12.30663
H        -10.49518       41.04594       13.16279
N        -10.53399       38.42539        9.57866
C        -11.07224       37.53014        8.55661
C        -11.92830       36.42733        9.17389
O        -13.02681       36.20225        8.68434
C         -9.86409       36.94578        7.73244
C         -9.30905       38.05848        6.80160
C        -10.23375       35.67256        6.94857
C         -8.06496       37.67850        5.99124
H         -9.65192       38.15380       10.00069
H        -11.73657       38.07807        7.85095
H         -9.06565       36.62079        8.43194
H         -9.03944       38.94038        7.41945
H        -10.10373       38.36460        6.08653
H        -11.07185       35.85971        6.25000
H         -9.35914       35.27384        6.39610
H        -10.51695       34.86345        7.65688
H         -8.27507       36.85961        5.27484
H         -7.73877       38.55957        5.39810
H         -7.22948       37.37868        6.65340
N        -11.47726       35.67468       10.21270
C        -12.16636       34.48300       10.72120
C        -12.97164       34.73466       11.99934
O        -13.62950       33.81362       12.46450
C        -11.18590       33.28167       10.75272
C         -9.93176       33.45682       11.56384
O         -9.70758       34.56547       12.27200
O         -9.06599       32.60037       11.52524
H        -10.59400       35.96316       10.64159
H        -12.95756       34.18006        9.99910
H        -10.85508       33.11335        9.70465
H        -11.70787       32.36387       11.09864
N        -13.11434       35.99289       12.50508
C        -14.14733       36.37193       13.46235
C        -13.89525       35.94266       14.88578
O        -14.75867       35.32744       15.49491
H        -12.58702       36.76462       12.07762
H        -15.13901       36.01935       13.10009
H        -14.18894       37.48195       13.48492
N        -12.73500       36.30217       15.49129
C        -12.39799       36.06777       16.88949
C        -11.99288       37.36582       17.61342
O        -11.56104       37.28380       18.75491
C        -11.28712       35.00272       16.95734
C        -10.10334       35.27681       16.08515
O         -9.77100       34.45497       15.24645
O         -9.39139       36.40425       16.22879
H        -12.02339       36.75665       14.91107
H        -13.26158       35.64503       17.45054
H        -11.72095       34.03333       16.62938
H        -10.94182       34.89122       18.00415
N        -12.16076       38.59786       17.04803
C        -11.85409       39.85694       17.71520
C        -10.40824       40.32144       17.61502
O        -10.15245       41.42223       18.08310
H        -12.66382       38.66598       16.15799
H        -12.19743       39.82880       18.77230
H        -12.44192       40.65320       17.20815
N         -9.41472       39.58690       17.02951
C         -8.04854       40.09205       16.86710
C         -7.51283       39.91930       15.45363
O         -7.85980       38.96621       14.76892
C         -7.05849       39.48922       17.88806
C         -7.35757       39.97768       19.31480
C         -6.19251       39.71840       20.23368
N         -6.03396       38.52469       20.84551
O         -5.38138       40.61129       20.43412
H         -9.63298       38.64895       16.68971
H         -8.03485       41.18764       17.04671
H         -6.04880       39.87883       17.62468
H         -7.01868       38.37886       17.83818
H         -8.29917       39.55042       19.72251
H         -7.48892       41.08126       19.27526
H         -6.72083       37.76972       20.71290
H         -5.23207       38.36832       21.47511
N         -6.54823       40.78501       15.01541
C         -5.86825       40.70126       13.73095
C         -4.48291       40.12516       13.95053
O         -3.64325       40.72979       14.60238
C         -5.81536       42.10293       13.04712
C         -4.82236       42.19472       11.87119
C         -7.20856       42.48794       12.54199
H         -6.23194       41.52330       15.66141
H         -6.41584       40.00833       13.05257
H         -5.47092       42.84919       13.79650
H         -4.83425       43.21893       11.44077
H         -3.78352       42.01722       12.21600
H         -5.07060       41.47852       11.06776
H         -7.18780       43.50216       12.08996
H         -7.53205       41.76428       11.76275
H         -7.94619       42.48133       13.36933
N         -4.19901       38.92377       13.38573
C         -2.90667       38.26780       13.36487
C         -1.99984       39.08288       12.44138
O         -2.50248       39.91273       11.69956
C         -3.12839       36.82694       12.77657
C         -2.05787       35.78247       13.00690
N         -2.39764       34.55568       13.46481
O         -0.89181       36.00169       12.73944
H         -4.95551       38.45984       12.90175
H         -2.54142       38.19811       14.41077
H         -3.33715       36.89325       11.69564
H         -4.06312       36.40512       13.20672
H         -3.37946       34.30861       13.65535
H         -1.67395       33.83359       13.59239
N         -0.66940       38.85257       12.36754
C          0.17853       39.37918       11.29341
C         -0.31831       38.85581        9.93563
O         -0.32000       39.58956        8.95876
C          1.61046       38.88460       11.54204
C          2.54100       39.21920       10.41201
C          2.97099       40.53559       10.18650
C          2.97919       38.19086        9.56448
C          3.85079       40.81091        9.13402
C          3.84276       38.46903        8.50871
C          4.29115       39.77902        8.29475
O          5.14579       40.05299        7.29009
H         -0.25695       38.21957       13.06542
H          0.17497       40.49279       11.28828
H          1.56561       37.77993       11.66024
H          2.00733       39.29977       12.49511
H          2.63995       41.34023       10.83223
H          2.64006       37.17272        9.71460
H          4.19389       41.82494        8.97367
H          4.16335       37.66293        7.86178
H          5.48767       39.35822        6.70893
N         -0.77561       37.58010        9.84016
C         -1.37297       36.94523        8.66803
C         -2.59355       37.72630        8.16887
O         -2.75311       37.87287        6.96573
C         -1.72805       35.48966        9.07352
C         -2.29097       34.62343        7.94448
C         -2.48851       33.19060        8.37957
O         -2.94226       32.38026        7.58849
O         -2.15959       32.78211        9.62315
H         -0.72390       37.01992       10.69237
H         -0.62125       36.89050        7.85038
H         -2.45160       35.49475        9.91882
H         -0.78561       35.01150        9.42923
H         -1.58417       34.63176        7.08800
H         -3.26796       35.03807        7.61983
N         -3.47692       38.27787        9.04763
C         -4.63166       39.10102        8.67805
C         -4.23365       40.53940        8.37538
O         -5.01883       41.23673        7.74864
C         -5.68786       39.02436        9.81572
C         -6.32724       37.62386        9.79510
C         -7.13825       37.22358       10.99341
O         -8.21908       36.69865       10.83752
O         -6.61289       37.21535       12.22060
H         -3.27699       38.16578       10.04281
H         -5.08271       38.69857        7.74308
H         -6.48128       39.79711        9.71469
H         -5.16293       39.20973       10.77480
H         -5.53423       36.85880        9.71019
H         -6.96679       37.57305        8.89183
N         -3.04180       41.05408        8.78508
C         -2.57744       42.39076        8.47879
H         -1.59428       42.32111        7.96498
H         -3.27751       42.94308        7.81936
H         -2.44277       42.96015        9.42219
H         -2.42683       40.48169        9.36219
Ca        -9.28597       36.37486       13.45191
O         -6.39204       34.45569       12.53104
H         -6.13915       34.55842       11.57968
H         -7.30305       34.07942       12.49911
O         -6.51725       36.08758       15.49680
H         -6.44048       35.12064       15.69558
H         -6.24158       36.53527       16.33559

Ca 1.0



