%chk=holoCaM.loop3.water2.frame416.chk
%nprocshared=20
%mem=10GB
%nosave
#b3lyp/svp scf=(tight,noincore,xqc) Test 
#IOP(5/87=12) Density=Current Pop=(MK,readradii) iop(6/33=2) iop(6/42=6)

holoCaM.loop3.water2.frame416 

   0  1 
C         -9.61378       95.99200       55.30596
C        -10.07064       95.47292       56.63075
O        -11.04561       94.73515       56.67530
H         -8.58372       95.62965       55.10824
H        -10.28388       95.63366       54.49550
H         -9.62198       97.10134       55.31816
N         -9.41369       95.83812       57.76710
C         -9.78680       95.34962       59.08110
C        -10.37047       96.48992       59.91118
O         -9.70223       97.48626       60.14707
C         -8.57016       94.69331       59.76295
C         -8.94068       94.06359       61.07045
O        -10.21965       94.02589       61.46372
O         -8.07827       93.61840       61.79986
H         -8.62270       96.49716       57.69784
H        -10.55829       94.56027       58.97747
H         -7.79562       95.46979       59.94397
H         -8.13661       93.90193       59.11387
N        -11.64285       96.37567       60.38536
C        -12.36021       97.37243       61.17537
C        -11.62495       97.72836       62.46090
O        -11.30890       98.89731       62.63401
C        -13.78467       96.82859       61.44253
C        -14.66460       97.70406       62.33994
C        -16.08988       97.13091       62.37507
C        -16.97313       97.85935       63.39255
N        -18.34064       97.33940       63.35704
H        -12.15020       95.51307       60.15012
H        -12.46323       98.30146       60.57051
H        -13.71891       95.82209       61.91430
H        -14.27895       96.71020       60.45179
H        -14.70045       98.74636       61.95593
H        -14.23134       97.70826       63.36404
H        -16.05882       96.05355       62.65113
H        -16.53467       97.22195       61.35870
H        -16.99002       98.94938       63.17342
H        -16.54788       97.70875       64.41019
H        -18.90726       97.81087       64.09828
H        -18.77234       97.53718       62.42482
H        -18.34426       96.30814       63.53307
N        -11.31565       96.78519       63.39787
C        -10.62713       97.09506       64.65407
C         -9.14353       96.73763       64.66990
O         -8.51844       96.92320       65.70581
C        -11.40652       96.63161       65.91699
C        -11.44871       95.19258       66.41584
O        -10.97901       94.10596       65.76795
O        -11.92628       95.01234       67.52459
H        -11.59161       95.82830       63.19187
H        -10.60937       98.20157       64.76929
H        -12.44993       97.00664       65.84341
H        -10.92765       97.18371       66.75659
N         -8.47409       96.35892       63.54140
C         -7.02199       96.21970       63.50219
C         -6.46393       95.03676       64.27134
O         -5.24711       94.93227       64.34326
H         -8.98410       96.28025       62.65208
H         -6.56881       97.15873       63.89131
H         -6.69103       96.10831       62.44664
N         -7.26199       94.09362       64.85212
C         -6.73510       92.95486       65.61113
C         -6.01173       91.90841       64.74307
O         -5.57896       90.90210       65.28608
C         -7.87904       92.30352       66.43035
C         -8.80092       91.40589       65.63773
N         -9.09275       90.16258       66.08464
O         -9.29666       91.79722       64.59710
H         -8.28191       94.21407       64.79746
H         -6.03119       93.36559       66.36942
H         -8.47129       93.11620       66.90674
H         -7.44000       91.70544       67.25692
H         -8.69823       89.80922       66.96759
H         -9.73416       89.55352       65.55802
N         -5.84632       92.07368       63.39687
C         -5.25083       91.10003       62.49740
C         -6.18474       89.94019       62.22401
O         -5.76047       88.80154       62.33595
H         -6.13610       92.94706       62.95391
H         -4.25342       90.77579       62.86866
H         -5.09344       91.59550       61.51463
N         -7.45916       90.17742       61.78887
C         -8.45397       89.15345       61.44419
C         -9.66865       89.81113       60.79131
O        -10.21839       90.73463       61.37835
C         -9.04119       88.37209       62.65344
C         -8.13502       87.46294       63.44733
C         -7.27747       87.97541       64.43191
C         -8.19280       86.07078       63.25382
C         -6.47365       87.12077       65.19059
C         -7.39116       85.21548       64.01345
C         -6.52690       85.73874       64.98490
O         -5.75168       84.92484       65.72885
H         -7.71814       91.16331       61.64652
H         -8.00853       88.42881       60.72793
H         -9.83168       87.71980       62.21525
H         -9.57248       89.05240       63.34851
H         -7.23354       89.03808       64.61121
H         -8.85815       85.64382       62.51324
H         -5.81390       87.53424       65.94267
H         -7.44714       84.14692       63.84841
H         -5.76758       83.96290       65.62302
N        -10.20186       89.31697       59.63168
C        -11.43958       89.83468       59.04710
C        -12.55650       88.79616       59.14256
O        -12.44837       87.71867       58.57659
C        -11.23571       90.36925       57.59397
C        -10.74345       89.29318       56.58863
C        -10.29434       91.58571       57.62539
C        -10.67247       89.79621       55.14534
H         -9.75026       88.50621       59.18429
H        -11.78854       90.70784       59.63168
H        -12.22628       90.73285       57.24163
H        -11.45432       88.44624       56.57113
H         -9.74442       88.91016       56.88422
H        -10.68565       92.34361       58.33116
H         -9.27312       91.29312       57.94628
H        -10.23860       92.07936       56.63524
H         -9.91408       90.59444       55.02515
H        -10.38554       88.95777       54.47647
H        -11.66276       90.17935       54.82566
N        -13.68062       89.07638       59.86697
C        -14.84796       88.19665       59.94812
C        -15.55876       88.10858       58.60062
O        -15.08785       88.69275       57.63954
C        -15.83249       88.74157       61.00926
O        -16.39436       89.96328       60.60725
H        -13.70995       89.96599       60.38278
H        -14.52595       87.18752       60.28641
H        -15.32229       88.83912       61.99551
H        -16.66379       88.02756       61.17861
H        -15.85650       90.68561       61.01796
N        -16.73686       87.43762       58.46786
C        -17.53576       87.46233       57.24403
C        -17.96779       88.88462       56.90615
O        -17.75199       89.32248       55.78571
C        -18.78550       86.58982       57.41063
H        -17.10531       86.92399       59.28269
H        -16.94674       87.03579       56.40073
H        -18.48956       85.54162       57.62711
H        -19.42239       86.95946       58.24270
H        -19.38323       86.59725       56.47351
N        -18.57687       89.66204       57.84902
C        -19.06112       91.02313       57.61242
C        -17.97355       91.92799       57.06770
O        -18.17807       92.54371       56.03053
C        -19.61061       91.61468       58.91761
H        -18.69614       89.26095       58.79210
H        -19.89640       90.99001       56.87814
H        -18.81633       91.66629       59.69386
H        -20.00351       92.63888       58.74156
H        -20.43904       90.98298       59.30237
N        -16.77601       92.02528       57.70425
C        -15.65668       92.83374       57.22386
C        -15.32721       92.46588       55.78628
O        -15.35043       93.34179       54.93297
C        -14.43620       92.62120       58.14575
C        -14.66771       93.23202       59.54071
C        -13.56670       92.85743       60.48570
O        -13.84965       92.23090       61.64285
O        -12.40929       93.10937       60.20996
H        -16.64619       91.45077       58.54865
H        -15.92924       93.91348       57.24375
H        -13.53394       93.10318       57.70693
H        -14.24211       91.52979       58.23245
H        -15.62522       92.88524       59.97905
H        -14.71567       94.33824       59.44521
N        -15.07044       91.17641       55.44206
C        -14.84165       90.72888       54.08432
H        -13.86029       90.22006       54.02133
H        -15.63368       90.00123       53.80604
H        -14.86128       91.56303       53.35316
H        -15.07666       90.46432       56.17437
Ca       -10.76320       93.74575       63.58529
O        -13.88268       93.90157       64.14769
H        -13.76547       93.78249       65.12328
H        -14.83576       93.68872       63.98507
O        -12.39254       90.22905       63.64442
H        -13.19141       90.44109       64.18984
H        -12.65526       89.43269       63.11758

Ca 1.0



