%chk=holoCaM-CaMKII.loop3.water1.frame401.chk
%nprocshared=20
%mem=10GB
%nosave
#b3lyp/svp scf=(tight,noincore,xqc) Test 
#IOP(5/87=12) Density=Current Pop=(MK,readradii) iop(6/33=2) iop(6/42=6)

holoCaM-CaMKII.loop3.water1.frame401 

   0  1 
C         40.41186       76.51438       66.97577
C         39.08244       77.19838       67.10150
O         38.12744       76.75152       66.48215
H         41.18372       77.00871       67.60303
H         40.31490       75.45973       67.30983
H         40.74583       76.53492       65.91834
N         38.93930       78.28400       67.91148
C         37.65721       78.94558       68.12328
C         37.18672       79.56926       66.81253
O         37.88836       80.43228       66.30055
C         37.81611       80.01983       69.22319
C         36.51984       80.34023       69.89503
O         36.46004       80.28918       71.11320
O         35.38624       80.53630       69.20475
H         39.76764       78.61673       68.42964
H         36.94729       78.16854       68.48571
H         38.32256       80.92507       68.82773
H         38.46750       79.61679       70.03296
N         36.06203       79.13435       66.16624
C         35.73281       79.59757       64.81399
C         35.36539       81.07124       64.73757
O         35.38183       81.62265       63.64588
C         34.61160       78.75363       64.16810
C         33.20562       79.04619       64.72944
C         32.15337       78.17732       64.03357
C         30.72914       78.59492       64.42812
N         29.74110       77.72737       63.78839
H         35.50315       78.38175       66.59553
H         36.64999       79.43097       64.20481
H         34.86206       77.67594       64.27783
H         34.58840       78.98771       63.08044
H         32.95669       80.11234       64.53688
H         33.17283       78.87048       65.82396
H         32.33334       77.11239       64.29826
H         32.24812       78.29119       62.93137
H         30.55517       79.64727       64.10981
H         30.59688       78.55125       65.52917
H         29.86913       76.74135       64.11368
H         28.78110       78.04858       64.04923
H         29.84210       77.77120       62.74812
N         34.93777       81.74247       65.84060
C         34.50258       83.13130       65.83196
C         35.47712       83.95748       66.66158
O         36.00736       84.92172       66.12711
C         32.99650       83.22582       66.18833
C         32.56210       82.52030       67.43984
O         31.78217       81.58231       67.37951
O         32.97976       82.94543       68.63417
H         34.88777       81.23758       66.73553
H         34.55237       83.55891       64.80479
H         32.43969       82.75236       65.34815
H         32.68129       84.29056       66.23364
N         35.85925       83.58024       67.91612
C         36.94018       84.22271       68.65565
C         36.52776       84.74389       70.01557
O         37.38521       85.26922       70.71147
H         35.43341       82.75039       68.33811
H         37.37470       85.06960       68.08292
H         37.74490       83.47120       68.80324
N         35.24229       84.66623       70.45944
C         34.79194       85.24418       71.72203
C         35.41037       84.60810       72.95786
O         35.26162       85.19042       74.02336
C         33.24894       85.19956       71.80904
C         32.69450       83.79969       71.97624
N         31.78566       83.52529       72.93464
O         33.05161       82.90463       71.23149
H         34.54006       84.26121       69.83698
H         35.09498       86.31497       71.69533
H         32.84461       85.63540       70.87014
H         32.89768       85.83752       72.64824
H         31.43933       84.25911       73.56811
H         31.40498       82.57169       73.01474
N         36.08545       83.42032       72.91557
C         36.72274       82.84417       74.08991
C         36.13794       81.52007       74.53052
O         36.64606       80.99944       75.51461
H         36.16887       82.90614       72.02670
H         36.65530       83.52792       74.96189
H         37.80297       82.70326       73.86712
N         35.10804       80.89031       73.88413
C         34.63852       79.57647       74.31943
C         34.06530       78.77416       73.13882
O         32.92958       79.37365       72.57458
C         33.73699       79.67043       75.58409
C         32.35842       80.26284       75.37192
C         31.32982       79.48825       74.80237
C         32.06977       81.57576       75.78063
C         30.05389       80.02326       74.61362
C         30.78777       82.10891       75.59666
C         29.77904       81.33898       75.00609
O         28.55409       81.87161       74.82106
H         34.71605       81.30302       73.02579
H         35.54262       78.99437       74.60829
H         34.28675       80.27336       76.33762
H         33.60517       78.66575       76.04081
H         31.51229       78.46392       74.50431
H         32.83746       82.19153       76.23140
H         29.28046       79.41239       74.16422
H         30.58070       83.12635       75.90289
H         27.83401       81.37380       74.40726
N         33.79813       77.37507       73.49961
C         33.57423       76.51070       72.32584
C         32.59779       75.42297       72.70365
O         32.50437       75.07284       73.87620
C         34.88835       75.98633       71.62560
C         35.80723       75.04639       72.46159
C         35.74202       77.16604       71.13419
C         35.27901       73.62314       72.64156
H         34.54090       76.97477       74.11500
H         33.02816       77.11285       71.56649
H         34.59073       75.43207       70.70819
H         36.06368       75.49717       73.44238
H         36.76491       74.91441       71.90947
H         36.60539       76.80010       70.53827
H         35.14125       77.82749       70.47822
H         36.15337       77.74789       71.98467
H         34.35469       73.57974       73.23822
H         35.10073       73.15843       71.64772
H         36.04465       73.01751       73.17257
N         31.76188       74.90581       71.76598
C         30.74879       73.90014       72.04557
C         30.99030       72.66660       71.19988
O         31.94733       72.64456       70.43132
C         29.35584       74.50738       71.78813
O         29.23046       74.90318       70.44907
H         31.82661       75.26539       70.79984
H         30.78168       73.58616       73.11299
H         29.23398       75.39181       72.45524
H         28.56039       73.77145       72.03386
H         28.37353       75.40081       70.38787
N         30.16258       71.59279       71.28140
C         30.30731       70.39904       70.45593
C         30.21750       70.74437       68.98084
O         31.01013       70.23436       68.20593
C         29.23315       69.36900       70.80654
H         29.37700       71.63269       71.95336
H         31.29327       69.92183       70.66010
H         29.32139       69.08674       71.87762
H         28.21685       69.77662       70.62106
H         29.37429       68.45240       70.19403
N         29.29302       71.64466       68.53608
C         29.20165       72.07026       67.14310
C         30.51780       72.65561       66.66164
O         31.03824       72.18052       65.65996
C         28.08155       73.10639       66.97686
H         28.64931       72.06482       69.22268
H         28.93835       71.19267       66.51143
H         27.99389       73.40713       65.91048
H         27.11094       72.67017       67.29573
H         28.28044       74.01243       67.58841
N         31.12275       73.68166       67.32833
C         32.37509       74.28754       66.87247
C         33.53361       73.30029       66.85826
O         34.52305       73.57275       66.19266
C         32.79207       75.47694       67.76197
C         31.76516       76.61350       67.76333
C         32.22743       77.74767       68.62780
O         33.27831       78.31836       68.38480
O         31.47845       78.14548       69.67318
H         30.66330       74.04315       68.17735
H         32.21315       74.65272       65.83271
H         33.75690       75.88553       67.38511
H         32.95331       75.11419       68.79925
H         30.78284       76.26143       68.13896
H         31.63477       76.97568       66.72830
N         33.51418       72.16779       67.61144
C         34.61656       71.23432       67.64006
H         35.54068       71.74852       67.97944
H         34.39021       70.40902       68.34904
H         34.77381       70.80473       66.62893
H         32.70739       71.96841       68.20881
Ca        33.67386       80.17958       70.59818
O         30.53163       80.93756       70.74565
H         29.90006       80.41758       70.18811
H         30.12103       81.83591       70.81222

Ca 1.0



