%chk=holoCaM.loop3.water3.frame348.chk
%nprocshared=20
%mem=10GB
%nosave
#b3lyp/svp scf=(tight,noincore,xqc) Test 
#IOP(5/87=12) Density=Current Pop=(MK,readradii) iop(6/33=2) iop(6/42=6)

holoCaM.loop3.water3.frame348 

   0  1 
C         -6.80139       43.32813       88.17537
C         -7.84104       44.26264       87.64317
O         -8.29197       45.10998       88.40138
H         -5.93533       43.92531       88.53436
H         -7.21996       42.75201       89.02624
H         -6.44812       42.62565       87.39372
N         -8.27194       44.17703       86.34856
C         -9.21018       45.13018       85.77652
C        -10.52423       44.44092       85.42136
O        -10.53096       43.53837       84.59582
C         -8.56168       45.82165       84.55483
C         -9.33421       47.03512       84.13198
O         -9.03782       47.63470       83.11430
O        -10.32927       47.47988       84.91522
H         -7.90307       43.42923       85.74126
H         -9.42562       45.90819       86.53193
H         -8.49558       45.09073       83.71869
H         -7.53373       46.16373       84.79986
N        -11.67422       44.79771       86.06558
C        -12.95223       44.10936       85.90303
C        -13.54500       44.28219       84.50449
O        -13.60343       43.29403       83.78550
C        -13.90618       44.55560       87.03712
C        -15.27245       43.86022       87.03469
C        -16.04932       44.22144       88.31152
C        -17.45109       43.60052       88.31437
N        -18.14970       43.89301       89.56673
H        -11.61037       45.53289       86.78310
H        -12.76124       43.02383       86.06657
H        -14.06116       45.65515       87.00310
H        -13.39486       44.31761       87.99770
H        -15.13393       42.75772       87.00373
H        -15.84208       44.18000       86.13536
H        -16.14523       45.32623       88.39869
H        -15.48238       43.84559       89.19279
H        -17.37492       42.49768       88.19065
H        -18.03374       44.01302       87.46090
H        -18.22489       44.92638       89.70981
H        -19.11179       43.48567       89.52605
H        -17.63683       43.46329       90.37111
N        -14.05068       45.47386       84.05786
C        -14.66735       45.60877       82.72723
C        -13.64004       45.52855       81.59335
O        -14.05013       45.49879       80.44137
C        -15.50598       46.91886       82.61368
C        -14.67622       48.16543       82.73692
O        -15.19474       49.26627       82.81527
O        -13.35155       48.02147       82.83448
H        -14.05529       46.27682       84.70345
H        -15.39305       44.77331       82.61115
H        -16.25224       46.91396       83.43780
H        -16.05698       46.94637       81.64898
N        -12.29436       45.51605       81.83630
C        -11.29305       45.43906       80.78835
C        -11.27725       46.66248       79.89882
O        -11.45653       46.51746       78.69811
H        -11.94286       45.54732       82.80325
H        -11.46116       44.51720       80.18960
H        -10.28642       45.35910       81.25452
N        -11.00932       47.89649       80.41869
C        -10.84919       49.10245       79.60505
C         -9.42559       49.65687       79.72741
O         -9.17927       50.76226       79.26544
C        -11.94198       50.14188       79.96194
C        -11.71899       50.90982       81.24060
N        -11.76402       52.26287       81.25027
O        -11.51443       50.31468       82.27898
H        -10.87452       47.97733       81.43603
H        -11.02210       48.86454       78.53292
H        -12.91874       49.61308       80.01365
H        -12.01519       50.87960       79.13384
H        -11.95113       52.79635       80.38929
H        -11.62612       52.78574       82.12753
N         -8.42288       48.91538       80.29599
C         -7.04962       49.37552       80.44581
C         -6.83290       50.27847       81.64929
O         -5.70001       50.69021       81.85685
H         -8.60728       47.94301       80.57690
H         -6.70871       49.86045       79.50481
H         -6.40132       48.48799       80.61165
N         -7.85027       50.62767       82.48681
C         -7.70499       51.51950       83.63415
C         -8.30693       50.89889       84.87935
O         -9.44045       50.44081       84.81862
C         -8.48198       52.81008       83.34201
C         -7.86439       53.59791       82.21697
C         -8.51091       53.69058       80.97686
C         -6.64258       54.26547       82.40611
C         -7.95277       54.44060       79.94135
C         -6.09002       55.02825       81.37257
C         -6.74647       55.11920       80.13589
O         -6.23266       55.85685       79.13178
H         -8.80161       50.29211       82.28255
H         -6.64368       51.79275       83.82802
H         -8.51836       53.46622       84.24019
H         -9.52739       52.52926       83.09781
H         -9.44235       53.17776       80.80599
H         -6.12943       54.21199       83.35879
H         -8.46463       54.49871       78.98939
H         -5.15657       55.55182       81.53570
H         -5.41134       56.35858       79.23042
N         -7.65029       50.95791       86.07408
C         -8.27021       50.56720       87.34035
C         -8.45290       51.77634       88.23882
O         -7.75879       52.77265       88.07931
C         -7.47710       49.44532       88.07433
C         -6.00172       49.84881       88.34618
C         -7.57939       48.14518       87.27346
C         -5.20827       48.81009       89.14257
H         -6.71060       51.38181       86.09771
H         -9.29783       50.18461       87.15234
H         -7.97425       49.25896       89.05381
H         -5.98960       50.79183       88.93309
H         -5.46472       50.02231       87.39045
H         -8.65038       47.89478       87.14501
H         -7.10398       48.24648       86.27655
H         -7.11066       47.30363       87.81789
H         -5.09999       47.86223       88.57722
H         -4.18472       49.19816       89.33097
H         -5.69837       48.60846       90.11798
N         -9.40599       51.74440       89.21023
C         -9.64040       52.81126       90.17315
C         -9.45055       52.27589       91.58126
O         -9.20436       51.08653       91.74475
C        -11.06386       53.37040       89.98471
O        -12.01750       52.36107       90.17729
H        -10.00432       50.90917       89.27576
H         -8.91826       53.64248       90.02098
H        -11.15630       53.77358       88.95174
H        -11.24399       54.19543       90.70895
H        -12.90477       52.78759       90.05082
N         -9.55451       53.10151       92.66041
C         -9.45625       52.60700       94.02997
C        -10.58178       51.63502       94.33583
O        -10.38760       50.74238       95.14860
C         -9.49117       53.75924       95.03331
H         -9.71881       54.10788       92.50079
H         -8.47825       52.08706       94.14878
H         -8.64899       54.45544       94.83377
H        -10.44883       54.31646       94.95312
H         -9.38417       53.36788       96.06787
N        -11.78699       51.74502       93.70504
C        -12.86856       50.78507       93.87610
C        -12.42993       49.42027       93.38247
O        -12.50352       48.45790       94.13366
C        -14.10982       51.24329       93.09596
H        -11.93644       52.53473       93.05888
H        -13.15524       50.73162       94.94987
H        -14.44178       52.23643       93.46726
H        -13.89684       51.33052       92.00951
H        -14.94177       50.52117       93.23766
N        -11.94780       49.27468       92.11517
C        -11.53067       47.99127       91.55294
C        -10.30405       47.41071       92.25129
O         -9.96388       46.27217       91.96007
C        -11.20567       48.14245       90.05301
C        -12.41050       48.63710       89.23329
C        -12.00817       48.87995       87.81686
O        -11.56200       47.96640       87.15156
O        -12.13501       50.10488       87.27180
H        -11.89412       50.11865       91.52828
H        -12.37668       47.27657       91.66074
H        -10.87577       47.16429       89.63576
H        -10.35946       48.85107       89.95209
H        -12.81154       49.58950       89.63141
H        -13.22083       47.87743       89.26388
N         -9.57471       48.12980       93.15292
C         -8.40594       47.61723       93.83659
H         -7.52849       48.24919       93.58460
H         -8.57706       47.66421       94.93254
H         -8.17707       46.56723       93.56072
H         -9.83269       49.09810       93.36578
Ca       -11.99769       48.83538       84.37135
O        -14.61187       48.72492       85.93313
H        -15.56429       48.87180       85.70896
H        -14.62220       47.98642       86.59163
O        -11.17105       52.55498       85.54563
H        -10.86171       52.54123       86.48576
H        -11.61945       53.43065       85.44085
O        -13.67975       51.64161       84.17019
H        -13.53648       52.54089       83.78229
H        -14.65200       51.48606       84.07432

Ca 1.0



