%chk=holoCaM-CaMKII.loop1.water1.frame36.chk
%nprocshared=20
%mem=10GB
%nosave
#b3lyp/svp scf=(tight,noincore,xqc) Test 
#IOP(5/87=12) Density=Current Pop=(MK,readradii) iop(6/33=2) iop(6/42=6)

holoCaM-CaMKII.loop1.water1.frame36 

   0  1 
C         26.83711       68.72684       30.42659
C         27.03885       68.28316       31.84800
O         27.33769       67.12156       32.07717
H         26.57211       69.80558       30.37275
H         27.77575       68.57628       29.85354
H         26.01801       68.14309       29.96060
N         26.91190       69.18073       32.85875
C         27.14485       68.87233       34.26453
C         26.10536       67.87673       34.78615
O         24.91858       68.14879       34.67227
C         27.09200       70.20379       35.04811
C         27.53925       70.13778       36.47007
O         27.50054       71.25566       37.20888
O         27.97167       69.11190       36.95560
H         26.67742       70.15364       32.60411
H         28.17616       68.46326       34.36950
H         26.05962       70.61136       35.01363
H         27.77540       70.93220       34.55833
N         26.48985       66.71735       35.39876
C         25.56426       65.71679       35.93806
C         25.59730       65.66278       37.46704
O         24.84274       64.87632       38.02372
C         25.92972       64.31535       35.38572
C         25.78214       64.14757       33.86476
C         24.31360       64.15128       33.41113
C         24.19852       63.86074       31.90791
N         22.79697       63.78518       31.49465
H         27.49516       66.54465       35.51518
H         24.51560       65.96524       35.67114
H         25.30434       63.53197       35.86991
H         26.98792       64.10631       35.65961
H         26.20920       63.15377       33.60299
H         26.36894       64.92340       33.33025
H         23.84122       65.13127       33.63112
H         23.76669       63.35693       33.96623
H         24.69276       62.89035       31.67658
H         24.71358       64.66257       31.33391
H         22.75186       63.59302       30.46777
H         22.31542       63.00682       32.00186
H         22.31080       64.68922       31.69371
N         26.41519       66.46053       38.21579
C         26.47087       66.42392       39.67662
C         26.07762       67.75354       40.31308
O         26.04698       67.81604       41.53500
C         27.91198       66.10025       40.11539
C         28.40655       64.79583       39.56385
O         27.78666       63.64622       39.88708
O         29.38489       64.77001       38.83434
H         27.04810       67.10950       37.74245
H         25.78090       65.64927       40.07618
H         27.97803       66.06037       41.22397
H         28.57304       66.91774       39.76192
N         25.81643       68.87104       39.57525
C         25.58063       70.17705       40.17106
C         26.76361       70.60117       41.01518
O         26.58335       70.97562       42.16468
H         25.83522       68.82960       38.54755
H         24.64680       70.17298       40.77339
H         25.45956       70.91834       39.35059
N         28.01754       70.52413       40.49488
C         29.23895       70.90635       41.19624
C         30.01892       71.95479       40.41246
O         31.11916       72.29005       40.82636
C         30.09351       69.65025       41.52662
C         30.48605       68.74110       40.38623
O         30.11622       68.99990       39.12101
O         31.10035       67.71460       40.62851
H         28.10632       70.15386       39.53991
H         29.00321       71.36366       42.18266
H         29.49880       69.02915       42.23141
H         31.01470       69.96961       42.06177
N         29.49804       72.56224       39.30427
C         30.21961       73.55971       38.53519
C         31.38818       72.99362       37.75426
O         32.12243       73.79659       37.19265
H         28.53278       72.36931       39.02079
H         30.57316       74.35205       39.23030
H         29.53327       74.03672       37.80177
N         31.62902       71.65029       37.64573
C         32.79386       71.10433       36.95294
C         32.40506       70.24033       35.76684
O         31.26231       69.80440       35.67245
C         33.65570       70.26310       37.92521
C         34.06678       71.06378       39.16381
O         32.93519       69.12525       38.32770
H         30.97685       70.98595       38.07818
H         33.41657       71.93890       36.56160
H         34.57361       69.94648       37.37752
H         33.59282       68.47536       38.68910
H         34.71053       70.44009       39.81880
H         34.62351       71.97780       38.87251
H         33.17246       71.35409       39.74887
N         33.32919       69.97927       34.79905
C         33.09369       69.12922       33.63725
C         34.28139       68.18285       33.48331
O         35.41331       68.65135       33.42905
C         32.89853       69.97851       32.34647
C         31.77351       71.03087       32.54699
C         32.55381       69.04258       31.16306
C         31.60444       71.98551       31.36317
H         34.24759       70.44814       34.87025
H         32.14927       68.55314       33.76858
H         33.84603       70.51826       32.12709
H         32.02213       71.66930       33.42026
H         30.80432       70.52401       32.75268
H         31.60035       68.50245       31.35958
H         32.45397       69.59924       30.21166
H         33.35146       68.29070       31.00130
H         31.27627       71.45498       30.44776
H         30.82679       72.73939       31.60809
H         32.55944       72.51614       31.16241
N         34.09329       66.84539       33.34726
C         35.15405       65.86663       33.14430
C         35.04639       65.30197       31.73905
O         34.14731       65.69476       31.00936
C         35.03912       64.73453       34.20180
C         35.20663       65.26796       35.62777
O         33.79135       64.10212       34.08170
H         33.13281       66.49869       33.31606
H         36.15590       66.34291       33.23119
H         35.84621       63.99070       34.01547
H         33.83601       63.25716       34.60148
H         35.13479       64.42726       36.35156
H         36.20142       65.74564       35.74368
H         34.41382       66.00622       35.86997
N         35.93886       64.39195       31.27196
C         35.83984       63.78723       29.94396
C         34.56292       62.96100       29.82158
O         33.82720       63.15866       28.86682
C         37.09167       62.94226       29.61285
C         38.33547       63.84004       29.49406
O         37.29200       61.95484       30.59098
H         36.72001       64.11852       31.88967
H         35.80237       64.58986       29.17037
H         36.92442       62.46111       28.62096
H         37.99059       61.34264       30.24073
H         38.17832       64.60636       28.70357
H         38.55643       64.35890       30.44967
H         39.21974       63.23286       29.20926
N         34.21778       62.05037       30.77907
C         32.97618       61.27169       30.74598
C         31.75007       62.16517       30.61949
O         30.95573       61.94257       29.71525
C         32.84627       60.39339       32.01403
C         33.77762       59.16498       31.96279
C         33.57090       58.22000       33.16458
C         34.22193       58.69351       34.47650
N         35.68211       58.56628       34.43121
H         34.84658       61.93906       31.58826
H         32.97605       60.59893       29.85905
H         31.80816       59.99261       32.05274
H         33.00611       61.00914       32.92598
H         34.84286       59.44972       31.84836
H         33.48726       58.59448       31.05371
H         33.99194       57.21935       32.92691
H         32.47760       58.08320       33.31641
H         33.85173       58.03878       35.29667
H         33.92589       59.73661       34.71823
H         36.08177       58.85514       35.35282
H         35.94482       57.56681       34.26148
H         36.09511       59.16701       33.68464
N         31.54003       63.20276       31.47303
C         30.38157       64.09816       31.39393
C         30.27457       64.71084       30.00010
O         29.18808       64.72184       29.43860
C         30.46134       65.19438       32.48519
C         30.42040       64.59498       33.91514
C         30.61935       65.62242       34.99969
O         31.63400       66.29071       35.04115
O         29.71750       65.77744       35.97912
H         32.26340       63.37699       32.18318
H         29.44831       63.52186       31.58274
H         29.60670       65.89492       32.37718
H         31.38778       65.77155       32.31904
H         31.22039       63.84388       34.04472
H         29.44659       64.08008       34.06554
N         31.38227       65.15130       29.34476
C         31.35305       65.64378       27.98459
H         32.38728       65.87452       27.64586
H         30.93631       64.86663       27.30782
H         30.74071       66.56600       27.92261
H         32.29129       65.08282       29.80574
Ca        30.08046       67.45133       37.46463
O         32.62353       65.53599       38.03242
H         32.42555       64.66758       37.59953
H         32.31993       65.42296       38.96794

Ca 1.0



