%chk=holoCaM.loop1.water1.frame283.chk
%nprocshared=20
%mem=10GB
%nosave
#b3lyp/svp scf=(tight,noincore,xqc) Test 
#IOP(5/87=12) Density=Current Pop=(MK,readradii) iop(6/33=2) iop(6/42=6)

holoCaM.loop1.water1.frame283 

   0  1 
C         30.23465       76.63350       36.17547
C         30.06070       75.46223       35.25297
O         30.98887       75.12452       34.53322
H         29.30906       76.83035       36.75900
H         31.05994       76.42951       36.88790
H         30.46982       77.54110       35.58235
N         28.88141       74.78812       35.22843
C         28.61960       73.64640       34.36302
C         28.70925       74.05344       32.88953
O         28.01712       74.97283       32.47710
C         27.24830       73.05681       34.74251
C         26.85551       71.89056       33.90386
O         27.56435       70.90163       33.84146
O         25.68881       71.92754       33.24101
H         28.13493       75.09873       35.87089
H         29.36893       72.85848       34.58015
H         26.45990       73.83462       34.65977
H         27.29398       72.71523       35.80149
N         29.54977       73.38227       32.04478
C         29.77444       73.69522       30.63761
C         29.19443       72.62748       29.71435
O         29.30317       72.79872       28.50788
C         31.30319       73.85998       30.36372
C         32.12029       72.54742       30.50991
C         33.61774       72.75022       30.21586
C         34.46573       71.47627       30.43358
N         34.11524       70.39063       29.51583
H         30.05041       72.57892       32.41312
H         29.27013       74.65428       30.38861
H         31.71299       74.63240       31.05094
H         31.43839       74.22963       29.32315
H         31.71805       71.79543       29.80246
H         32.02761       72.15488       31.53893
H         34.00777       73.52776       30.90764
H         33.75549       73.11011       29.17290
H         34.35872       71.12229       31.48192
H         35.53534       71.73900       30.27461
H         34.20400       70.70726       28.52349
H         34.76689       69.58761       29.67381
H         33.14670       70.05428       29.69815
N         28.58154       71.50134       30.19242
C         28.07662       70.43189       29.33194
C         26.57253       70.23453       29.47132
O         26.03860       69.35370       28.81088
C         28.77848       69.11192       29.70927
C         30.27022       69.20202       29.59074
O         31.04200       68.98837       30.67336
O         30.78979       69.45268       28.51516
H         28.48602       71.36448       31.20887
H         28.28194       70.65523       28.26238
H         28.42575       68.29289       29.04634
H         28.51727       68.84739       30.75809
N         25.82267       70.98705       30.32206
C         24.40912       70.75494       30.56335
C         24.16347       69.37843       31.14233
O         23.27676       68.68325       30.66838
H         26.26392       71.74784       30.85424
H         23.81700       70.90931       29.63582
H         24.05848       71.49796       31.31082
N         24.93391       68.91976       32.16844
C         24.73148       67.64034       32.84126
C         24.58005       67.81777       34.35484
O         24.44599       66.81684       35.04522
C         25.85371       66.64622       32.45676
C         27.25514       67.03468       32.82538
O         27.51501       68.17550       33.47805
O         28.17826       66.29778       32.52130
H         25.72152       69.50496       32.47479
H         23.79331       67.16242       32.48370
H         25.82547       66.51169       31.35363
H         25.63789       65.66116       32.92496
N         24.53698       69.05512       34.94060
C         24.31585       69.26631       36.36223
C         25.47570       68.87634       37.25809
O         25.31070       68.99825       38.46300
H         24.57699       69.90126       34.36006
H         23.39991       68.71452       36.66776
H         24.12914       70.34824       36.54019
N         26.66769       68.41589       36.77178
C         27.77798       68.00939       37.63421
C         29.03544       68.82391       37.35183
O         29.05453       69.61877       36.42444
C         28.04920       66.49388       37.47667
C         26.81452       65.64847       37.82686
O         28.51227       66.18892       36.18489
H         26.79474       68.33233       35.76002
H         27.51487       68.19312       38.69895
H         28.84625       66.20031       38.19250
H         27.74857       66.25741       35.55661
H         25.97334       65.86849       37.13606
H         27.06138       64.56953       37.74318
H         26.48446       65.86028       38.86582
N         30.11339       68.69797       38.18220
C         31.33750       69.49193       38.09337
C         32.55292       68.55379       38.02374
O         32.64499       67.61452       38.79947
C         31.38584       70.45906       39.31646
C         30.14944       71.41221       39.35846
C         32.68658       71.27989       39.36855
C         30.02797       72.40428       38.18760
H         30.03445       68.05272       38.98237
H         31.34028       70.12942       37.18433
H         31.35430       69.84187       40.24160
H         30.18646       72.00599       40.29736
H         29.21832       70.80804       39.39810
H         33.57010       70.61505       39.44604
H         32.80235       71.90954       38.46667
H         32.68407       71.94097       40.26179
H         29.11084       73.01719       38.31880
H         30.89065       73.09974       38.15420
H         29.94333       71.89038       37.21109
N         33.54679       68.80430       37.12328
C         34.74905       67.99934       36.89454
C         35.97861       68.76437       37.37494
O         35.83390       69.81082       37.98013
C         34.89489       67.69154       35.37135
C         33.68910       66.94486       34.80320
O         35.10727       68.88836       34.66399
H         33.46658       69.65815       36.57851
H         34.69812       67.03947       37.45198
H         35.77056       67.02635       35.21379
H         35.50231       68.65196       33.78423
H         33.56551       65.97130       35.32065
H         32.76293       67.53814       34.92309
H         33.84829       66.75027       33.71992
N         37.23296       68.30235       37.11207
C         38.45899       69.00770       37.48229
C         38.50715       70.41703       36.88365
O         38.68931       71.36932       37.62937
C         39.70775       68.19127       37.04038
C         39.80239       66.83907       37.75835
O         39.68893       67.95912       35.65224
H         37.32266       67.41336       36.60620
H         38.50333       69.10358       38.59055
H         40.62017       68.76535       37.33261
H         40.42805       68.48247       35.24627
H         40.72273       66.30854       37.43442
H         39.84798       66.98835       38.85721
H         38.93738       66.18449       37.52442
N         38.35774       70.61757       35.54430
C         38.45988       71.92357       34.88136
C         37.42211       72.90221       35.39420
O         37.77782       74.00116       35.79526
C         38.27336       71.76002       33.35564
C         39.43120       70.96997       32.72984
C         39.19256       70.71460       31.23762
C         40.37836       70.00243       30.56277
N         40.66895       68.69643       31.16045
H         38.15952       69.78867       34.96556
H         39.46957       72.35927       35.05629
H         38.24447       72.76196       32.87114
H         37.30436       71.25017       33.15409
H         39.53276       69.99397       33.24051
H         40.37276       71.54547       32.86818
H         39.03550       71.68540       30.71851
H         38.27250       70.10149       31.11324
H         41.28431       70.64551       30.62045
H         40.12629       69.86065       29.48876
H         39.81133       68.09818       31.16562
H         41.41025       68.22304       30.59579
H         41.03576       68.80704       32.13261
N         36.11103       72.55283       35.40291
C         35.01722       73.42030       35.84373
C         35.28725       73.95444       37.24111
O         35.25765       75.16333       37.42694
C         33.70745       72.61051       35.79266
C         33.30979       72.27990       34.33838
C         32.36686       71.11862       34.25490
O         32.77630       69.99275       34.43410
O         31.10072       71.26419       33.87655
H         35.89083       71.59051       35.10316
H         34.91636       74.29361       35.16096
H         32.85884       73.15078       36.26710
H         33.89604       71.69814       36.37901
H         34.18347       71.99589       33.71708
H         32.86846       73.19111       33.88290
N         35.61453       73.11828       38.25961
C         35.94952       73.59463       39.58326
H         36.81284       74.29273       39.52680
H         35.07837       74.11243       40.03475
H         36.23614       72.73821       40.23083
H         35.66638       72.11337       38.07917
Ca        29.98898       69.35292       33.48840
O         30.63883       66.40647       33.92752
H         30.72513       65.99129       34.82157
H         31.25120       65.88443       33.35135

Ca 1.0



