%chk=holoCaM.loop2.water2.frame62.chk
%nprocshared=20
%mem=10GB
%nosave
#b3lyp/svp scf=(tight,noincore,xqc) Test 
#IOP(5/87=12) Density=Current Pop=(MK,readradii) iop(6/33=2) iop(6/42=6)

holoCaM.loop2.water2.frame62 

   -2  1 
C         82.51478       21.72986       10.59343
C         82.56776       23.19488       10.25120
O         82.50565       23.54019        9.08064
H         81.56293       21.30539       10.20566
H         83.36986       21.18544       10.14858
H         82.52102       21.56882       11.69404
N         82.60350       24.11717       11.24869
C         82.39439       25.54635       11.03415
C         83.59810       26.26270       10.42769
O         84.72154       25.83378       10.65207
C         82.09790       26.18097       12.40508
C         81.36237       27.47898       12.36344
O         81.13669       28.03053       13.42697
O         80.87726       27.98454       11.20042
H         82.62530       23.76157       12.21778
H         81.49180       25.64487       10.39349
H         83.04966       26.27550       12.97656
H         81.42036       25.51579       12.98170
N         83.42721       27.42961        9.73431
C         84.51452       28.28375        9.27018
C         84.36823       29.75538        9.71565
O         85.28877       30.51266        9.43966
C         84.57222       28.20785        7.74058
H         82.47524       27.71976        9.50356
H         85.48391       27.90657        9.66278
H         84.71792       27.15199        7.42446
H         83.62503       28.58102        7.29447
H         85.41975       28.80637        7.34389
N         83.25406       30.25399       10.34998
C         83.05479       31.69003       10.60329
C         82.29643       32.05573       11.88394
O         82.27974       33.23868       12.19963
C         82.37969       32.34776        9.37552
C         81.09096       31.70336        8.91440
O         80.50262       30.70957        9.60611
O         80.58504       32.07260        7.86740
H         82.45995       29.63084       10.48576
H         84.05175       32.16865       10.72633
H         83.09772       32.27959        8.53445
H         82.19014       33.42894        9.56842
N         81.65093       31.15327       12.67541
C         80.94287       31.55348       13.88725
C         79.72287       32.41959       13.62343
O         79.23329       33.03453       14.56090
H         81.66484       30.16254       12.43078
H         81.65288       32.08708       14.55417
H         80.58271       30.65654       14.43777
N         79.13200       32.46308       12.39414
C         77.90639       33.20482       12.09524
C         76.63547       32.60256       12.73908
O         75.54836       33.05282       12.40340
C         77.74137       33.35608       10.55769
C         77.51804       32.09211        9.77299
N         77.23799       32.16905        8.45615
O         77.58230       30.99955       10.30640
H         79.57386       31.94352       11.62600
H         78.02327       34.25026       12.45450
H         78.64424       33.85424       10.13928
H         76.87358       34.02307       10.36931
H         77.18299       33.07666        7.97291
H         77.05176       31.31298        7.92731
N         76.68467       31.61522       13.68580
C         75.52495       30.99735       14.31168
C         74.83561       29.95393       13.45275
O         73.89589       29.34626       13.94592
H         77.58380       31.30409       14.05313
H         74.81097       31.77787       14.65223
H         75.87538       30.44870       15.21308
N         75.22332       29.69166       12.17124
C         74.55282       28.73902       11.29898
C         75.57587       27.73116       10.68115
O         76.46620       28.34666        9.77844
C         73.70785       29.53663       10.25986
C         72.58503       30.30469       10.97184
O         74.47721       30.49255        9.57251
H         75.97976       30.23826       11.76348
H         73.84293       28.11613       11.88690
H         73.21794       28.84122        9.54347
H         75.10434       30.02047        8.97600
H         71.94885       30.82682       10.22718
H         71.94514       29.61758       11.56529
H         73.00823       31.07548       11.65241
N         74.90397       26.53654       10.09737
C         75.70948       25.72582        9.16049
C         75.48931       26.17823        7.71359
O         74.38785       26.04613        7.19815
C         75.40706       24.19766        9.30648
C         75.42068       23.77223       10.79961
C         76.42929       23.39289        8.48069
C         75.41724       22.25733       11.03134
H         73.90158       26.64498        9.82149
H         76.77652       25.85012        9.44216
H         74.39439       23.96495        8.90538
H         74.51687       24.20486       11.28340
H         76.31532       24.17646       11.31192
H         76.20695       22.30694        8.49699
H         76.38918       23.68693        7.41646
H         77.45155       23.55702        8.87912
H         74.58281       21.76686       10.48866
H         76.38396       21.81972       10.69945
H         75.32444       22.04460       12.11640
N         76.51720       26.71933        7.00412
C         76.43863       27.14456        5.59941
C         76.34734       25.95042        4.65974
O         76.37375       24.83776        5.14414
C         77.68721       27.99193        5.28849
C         77.64874       29.23198        6.12788
O         78.54976       29.42027        7.11194
O         76.76574       30.05397        5.94204
H         77.40372       26.85886        7.50534
H         75.53561       27.77551        5.45013
H         77.74123       28.30043        4.22522
H         78.59817       27.40392        5.52678
N         76.19402       26.09621        3.30621
C         76.09680       24.95092        2.39311
C         77.42566       24.20411        2.27477
O         77.39926       22.99836        2.47431
C         75.53264       25.34563        1.00798
C         75.36053       24.13987        0.10129
C         74.45877       23.10917        0.43247
C         76.10314       24.03614       -1.08875
C         74.30663       22.00226       -0.41036
C         75.95010       22.92537       -1.92574
C         75.05228       21.91014       -1.58771
H         76.09582       27.04766        2.92151
H         75.33721       24.25172        2.80935
H         76.17641       26.09149        0.51756
H         74.54002       25.82694        1.14149
H         73.86851       23.16106        1.33817
H         76.80593       24.81084       -1.36729
H         73.60962       21.21488       -0.15180
H         76.52819       22.85131       -2.83786
H         74.93405       21.05258       -2.23842
N         78.62733       24.80083        1.97137
C         79.90293       24.08479        1.98288
C         80.10463       23.29701        3.27025
O         80.65233       22.20529        3.23848
C         80.94830       25.20964        1.88866
C         80.22058       26.24449        1.06709
C         78.83130       26.21034        1.69328
H         79.95331       23.41850        1.09371
H         81.10807       25.67309        2.88965
H         81.93438       24.89031        1.48615
H         80.68899       27.25174        1.03585
H         80.14522       25.85491        0.02495
H         78.78974       26.77534        2.64864
H         78.13933       26.64103        0.95351
N         79.65683       23.81275        4.44607
C         79.76619       23.14675        5.73825
C         78.84467       21.92831        5.81800
O         79.26395       20.89781        6.32374
C         79.46821       24.15642        6.86397
C         80.44176       25.35487        6.80486
C         80.18834       26.35034        7.88768
O         79.30518       26.08929        8.86500
O         80.78284       27.41427        7.87797
H         79.19952       24.73671        4.41540
H         80.81624       22.82696        5.91233
H         79.58060       23.64841        7.84683
H         78.43137       24.53882        6.76961
H         80.32635       25.89039        5.84320
H         81.49448       25.01033        6.87903
N         77.58088       21.97106        5.31280
C         76.65420       20.85960        5.33564
H         75.70977       21.15036        4.82037
H         77.08382       19.98908        4.79811
H         76.40792       20.58378        6.38121
H         77.26466       22.82125        4.85592
Ca        78.69537       28.18834       10.44866
O         78.11304       25.97669       11.83888
H         78.73639       26.09454       12.59701
H         78.54901       25.30696       11.25496
O         78.33266       29.48975       12.76871
H         77.76503       29.04105       13.43971
H         79.18382       29.01330       12.83414

Ca 1.0



