%chk=holoCaM-CaMKII.loop1.water2.frame316.chk
%nprocshared=20
%mem=10GB
%nosave
#b3lyp/svp scf=(tight,noincore,xqc) Test 
#IOP(5/87=12) Density=Current Pop=(MK,readradii) iop(6/33=2) iop(6/42=6)

holoCaM-CaMKII.loop1.water2.frame316 

   0  1 
C         58.08307       16.32649       53.83245
C         58.19229       14.94496       53.26068
O         57.78640       14.73902       52.12666
H         57.01719       16.63120       53.86810
H         58.50050       16.37342       54.86099
H         58.64992       17.03456       53.19251
N         58.75372       13.94352       53.98947
C         58.93249       12.59329       53.47472
C         57.57095       11.94750       53.21053
O         56.77262       11.84494       54.13113
C         59.77304       11.78142       54.48611
C         60.30897       10.48304       53.96294
O         60.11162       10.12317       52.81409
O         61.08077        9.73658       54.76963
H         59.10254       14.16525       54.93573
H         59.53087       12.66623       52.53793
H         59.18337       11.60083       55.41091
H         60.67154       12.37767       54.75936
N         57.24853       11.49383       51.96541
C         55.96355       10.90032       51.59362
C         56.06636        9.39852       51.33143
O         55.02567        8.78914       51.12545
C         55.41337       11.62252       50.33810
C         54.83985       13.01092       50.65736
C         54.44875       13.75899       49.37007
C         53.57458       15.00097       49.62476
N         54.19927       15.96974       50.52538
H         57.95948       11.56799       51.23383
H         55.23450       10.98769       52.42868
H         54.57881       11.03884       49.89079
H         56.22328       11.68647       49.57574
H         55.57485       13.62239       51.21900
H         53.93926       12.85741       51.29160
H         53.85587       13.08818       48.71041
H         55.37593       14.04510       48.82491
H         52.59885       14.68074       50.05321
H         53.36950       15.48891       48.64527
H         53.57888       16.80903       50.59574
H         54.29895       15.56329       51.48310
H         55.13204       16.26360       50.15713
N         57.25145        8.72401       51.34849
C         57.36231        7.26899       51.20135
C         58.05532        6.61589       52.40002
O         58.15879        5.39687       52.40988
C         58.05793        6.91692       49.87052
C         59.29250        7.73149       49.64077
O         60.29695        7.73620       50.53045
O         59.34899        8.47238       48.67296
H         58.12299        9.25563       51.46807
H         56.35626        6.79707       51.15873
H         57.35017        7.14341       49.04227
H         58.28475        5.82996       49.82477
N         58.50502        7.33602       53.46708
C         59.05400        6.73172       54.66871
C         60.34082        5.96969       54.44891
O         60.40741        4.80550       54.81629
H         58.40113        8.35794       53.48000
H         58.28953        6.06856       55.12849
H         59.27575        7.54071       55.39932
N         61.43100        6.59600       53.92878
C         62.76943        6.01048       53.89821
C         63.72391        6.83258       54.77226
O         64.92921        6.64807       54.67563
C         63.26377        5.82892       52.44216
C         63.44733        7.08158       51.63583
O         63.82911        7.00039       50.47958
O         63.20695        8.29033       52.16297
H         61.32122        7.56537       53.60323
H         62.76526        4.98267       54.32272
H         62.53697        5.17849       51.90881
H         64.24125        5.29897       52.46296
N         63.24097        7.70865       55.70852
C         64.07404        8.49689       56.60519
C         64.77586        9.66987       55.94630
O         65.47897       10.37582       56.65808
H         62.22665        7.77665       55.86301
H         64.80888        7.83045       57.10737
H         63.42340        8.93257       57.39426
N         64.66003        9.94547       54.61541
C         65.36658       11.03504       53.94696
C         64.44590       11.85825       53.04659
O         63.28602       11.50611       52.86199
C         66.56243       10.46141       53.14785
C         67.63884        9.87456       54.07381
O         66.13757        9.50063       52.21377
H         64.09464        9.32347       54.03473
H         65.77396       11.74280       54.70329
H         67.05644       11.28502       52.59092
H         65.91023        8.66694       52.70322
H         68.49409        9.50866       53.46842
H         68.00838       10.65774       54.76987
H         67.24006        9.02643       54.66935
N         64.91018       13.02019       52.49852
C         64.11934       13.94877       51.68969
C         64.87358       14.25727       50.39158
O         66.06906       14.51888       50.45409
C         63.86303       15.25698       52.50236
C         63.21091       14.92972       53.87625
C         62.96129       16.22023       51.69867
C         63.05976       16.14427       54.79477
H         65.87297       13.31064       52.73475
H         63.11822       13.52169       51.46040
H         64.84288       15.74928       52.69096
H         63.85538       14.21466       54.42872
H         62.21657       14.45321       53.72661
H         61.96495       15.76030       51.52013
H         62.81504       17.18161       52.22837
H         63.41665       16.47259       50.72169
H         62.64841       15.81533       55.77254
H         64.05094       16.61434       54.97076
H         62.36204       16.89569       54.37594
N         64.22639       14.32529       49.19191
C         64.87981       14.65044       47.91848
C         64.46684       16.02594       47.42511
O         63.66418       16.68715       48.06437
C         64.53006       13.58386       46.83959
C         65.16294       12.22686       47.13766
O         63.13768       13.47304       46.66837
H         63.20591       14.19535       49.18862
H         65.98463       14.69228       48.03904
H         64.95097       13.87797       45.85676
H         62.78350       12.85567       47.35926
H         66.26884       12.31996       47.15089
H         64.81673       11.86213       48.11863
H         64.87658       11.49958       46.34716
N         64.98835       16.52071       46.26752
C         64.56833       17.78206       45.65946
C         63.07380       17.72379       45.36849
O         62.34556       18.63225       45.73892
C         65.36042       18.06868       44.35301
C         66.86828       18.21373       44.60732
O         65.14366       17.04970       43.40986
H         65.68622       15.94709       45.77140
H         64.77324       18.62571       46.35739
H         64.98513       19.04006       43.95142
H         65.32014       17.44103       42.51440
H         67.38458       18.47013       43.65790
H         67.06224       19.02209       45.34271
H         67.31243       17.27048       44.98696
N         62.55723       16.61344       44.77143
C         61.14272       16.37649       44.49626
C         60.27679       16.58173       45.72909
O         59.34885       17.37741       45.67225
C         61.00241       14.92554       43.95795
C         59.55882       14.41191       43.84244
C         59.49569       12.96594       43.31410
C         59.92410       12.79585       41.84466
N         59.07395       13.56839       40.93652
H         63.22024       15.85842       44.53839
H         60.79000       17.08597       43.71484
H         61.52799       14.23001       44.64909
H         61.51777       14.88316       42.97556
H         58.94234       15.09032       43.22069
H         59.11505       14.39572       44.86140
H         58.44936       12.60487       43.40895
H         60.13111       12.31325       43.95456
H         59.83445       11.71679       41.58858
H         60.98795       13.08020       41.69873
H         59.31438       13.32319       39.94969
H         58.06630       13.34273       41.10453
H         59.23617       14.59237       41.06455
N         60.48808       15.85578       46.85601
C         59.60143       15.89956       48.01695
C         59.58375       17.29038       48.62363
O         58.51960       17.88898       48.69635
C         60.02237       14.82864       49.04716
C         59.89467       13.41294       48.44236
C         60.41292       12.34430       49.35215
O         61.56721       12.36878       49.74305
O         59.63178       11.30078       49.66836
H         61.29536       15.21878       46.86020
H         58.56603       15.64500       47.69283
H         59.37620       14.89205       49.94896
H         61.06957       15.02114       49.35605
H         60.47476       13.32866       47.50575
H         58.83012       13.20948       48.19350
N         60.73517       17.87628       49.04920
C         60.80928       19.21752       49.59065
H         61.46162       19.83739       48.93890
H         59.81462       19.70586       49.65421
H         61.25281       19.17942       50.60701
H         61.61266       17.35498       48.96903
Ca        61.74751        9.42367       50.22958
O         64.36405        9.99165       49.61990
H         64.57486        9.55468       48.75766
H         65.24235       10.12082       50.04946
O         62.32365        9.38021       47.22413
H         61.39823        9.54335       47.53198
H         62.64461       10.27257       46.94226

Ca 1.0



