%chk=holoCaM-CaMKII.loop4.water2.frame254.chk
%nprocshared=20
%mem=10GB
%nosave
#b3lyp/svp scf=(tight,noincore,xqc) Test 
#IOP(5/87=12) Density=Current Pop=(MK,readradii) iop(6/33=2) iop(6/42=6)

holoCaM-CaMKII.loop4.water2.frame254 

   -3  1 
C         89.19155       83.68215       67.97726
C         88.85220       84.04008       69.39767
O         89.71590       84.49101       70.13428
H         90.26325       83.87006       67.75758
H         88.97377       82.60689       67.79936
H         88.57183       84.28916       67.28289
N         87.58007       83.86174       69.83985
C         87.11509       84.17465       71.18951
C         87.82971       83.33823       72.25014
O         87.88882       82.12406       72.11613
C         85.60174       83.93054       71.25279
C         85.07002       84.17195       72.62463
O         84.53700       83.25606       73.22543
O         85.19417       85.37871       73.20593
H         86.89662       83.49132       69.15931
H         87.28150       85.25535       71.39245
H         85.38219       82.88017       70.96021
H         85.08544       84.61015       70.53916
N         88.37405       83.94636       73.34901
C         89.16081       83.25874       74.37484
C         88.54849       83.31923       75.78110
O         89.05889       82.58961       76.62143
C         90.61559       83.83565       74.29269
C         91.30892       83.20424       73.05667
C         91.46839       83.63939       75.56150
C         92.61832       83.87516       72.65307
H         88.27269       84.96701       73.43880
H         89.19612       82.16626       74.16193
H         90.52983       84.93748       74.16142
H         90.64100       83.27214       72.17612
H         91.49042       82.12370       73.25475
H         92.46392       84.11187       75.44979
H         90.99688       84.16147       76.42202
H         91.59671       82.56401       75.80021
H         93.02731       83.35417       71.76137
H         92.42953       84.93640       72.38690
H         93.37891       83.81823       73.45519
N         87.46981       84.08433       76.13308
C         86.89669       84.02753       77.48787
C         85.46758       83.50240       77.50521
O         84.91325       83.39441       78.59101
C         87.03380       85.37429       78.23697
C         86.25832       86.53327       77.68100
O         85.60202       86.42752       76.66059
O         86.27456       87.70740       78.34070
H         87.04034       84.70795       75.43538
H         87.46174       83.30535       78.11511
H         88.10807       85.65464       78.28379
H         86.68447       85.22171       79.28245
N         84.80949       83.13235       76.36831
C         83.48126       82.53730       76.39131
C         82.37367       83.51716       76.07346
O         81.22362       83.13023       76.22425
H         85.27464       83.23032       75.46085
H         83.26862       82.13484       77.40374
H         83.44712       81.66586       75.70096
N         82.61629       84.78649       75.63261
C         81.55102       85.76302       75.40323
C         81.22540       85.94609       73.92923
O         80.35164       86.74579       73.62745
C         81.87527       87.10126       76.11797
C         83.09749       87.84883       75.64144
O         83.41959       89.01915       76.22349
O         83.80516       87.41805       74.74872
H         83.58535       85.06511       75.43045
H         80.60234       85.39964       75.85431
H         82.00506       86.89618       77.20204
H         81.00572       87.78330       76.00184
N         81.82681       85.20237       72.95677
C         81.49115       85.30902       71.54694
C         81.86782       86.63328       70.92284
O         81.54142       86.82145       69.75949
H         82.50368       84.48421       73.22120
H         80.39871       85.14414       71.42970
H         82.02158       84.51306       70.97925
N         82.55948       87.59043       71.60676
C         82.90895       88.87943       71.04129
C         84.44853       88.96394       70.99159
O         84.92855       89.47493       72.20515
C         82.29005       90.01131       71.90262
C         80.76361       89.90370       72.01069
C         80.21887       90.89812       73.00455
N         79.29307       91.81246       72.63837
O         80.60433       90.86196       74.16469
H         82.86887       87.40894       72.56510
H         82.50932       88.96024       70.00795
H         82.56816       91.00492       71.48709
H         82.70093       89.93479       72.93449
H         80.48546       88.89904       72.38011
H         80.30993       90.04103       71.00639
H         78.94213       91.85171       71.67118
H         78.91738       92.47732       73.33099
N         84.92098       89.79822       69.88509
C         86.38419       89.70665       69.68958
C         86.91226       91.10862       69.86705
O         86.47369       92.00113       69.15486
C         86.76053       89.08113       68.30657
C         88.27825       89.12431       68.04764
C         86.29614       87.61295       68.22798
H         84.40598       89.58589       68.99965
H         86.85454       89.06058       70.46303
H         86.26453       89.65933       67.49570
H         88.50865       88.68054       67.05411
H         88.64885       90.17032       68.03551
H         88.83173       88.55568       68.82499
H         86.79907       87.00101       69.00911
H         85.19987       87.52272       68.36654
H         86.54482       87.18155       67.23421
N         87.84627       91.37359       70.82542
C         88.33399       92.71807       71.11491
C         89.76974       92.85865       70.66181
O         90.31059       91.91088       70.12441
C         88.12671       93.09042       72.60602
C         89.12288       92.49855       73.58363
N         89.18525       91.17496       73.84896
O         89.88262       93.25432       74.17104
H         88.24238       90.58241       71.34552
H         87.74457       93.45517       70.52828
H         87.08616       92.85687       72.91743
H         88.23528       94.19478       72.67517
H         88.53657       90.50269       73.42607
H         89.88368       90.82135       74.51880
N         90.43676       94.03657       70.80329
C         91.78383       94.25169       70.28318
C         92.81055       93.31722       70.91126
O         93.63661       92.77931       70.18694
C         92.20383       95.72218       70.48426
C         93.46232       96.03804       69.71148
C         93.46548       95.93575       68.30775
C         94.63481       96.43602       70.37147
C         94.62184       96.21415       67.57927
C         95.79341       96.71626       69.63823
C         95.78985       96.60348       68.23902
O         96.89856       96.86668       67.51924
H         89.94753       94.82494       71.25136
H         91.74598       94.05946       69.18943
H         92.32464       95.92364       71.57200
H         91.40563       96.39553       70.10183
H         92.57168       95.64018       67.77258
H         94.65483       96.52450       71.45038
H         94.60742       96.12610       66.49998
H         96.69302       97.01905       70.15798
H         97.72921       97.13791       67.93424
N         92.79627       93.05993       72.24972
C         93.73399       92.16228       72.92885
C         93.78722       90.80445       72.24164
O         94.86122       90.37997       71.84005
C         93.31425       92.02630       74.41367
C         94.23946       91.12344       75.24117
C         93.78516       91.08183       76.67414
O         93.74904       92.21288       77.40534
O         93.45034       90.02443       77.18413
H         92.05617       93.50927       72.80937
H         94.75208       92.61057       72.89312
H         92.27980       91.62192       74.47235
H         93.31219       93.04319       74.86544
H         95.27945       91.51094       75.20687
H         94.22843       90.09311       74.82276
N         92.65080       90.08831       72.04693
C         92.60784       88.79850       71.35655
C         93.11018       88.91782       69.92567
O         93.86091       88.05854       69.48598
C         91.16714       88.27271       71.32299
C         90.61686       87.95579       72.72766
C         89.15819       87.62984       72.65834
O         88.42591       87.53647       73.77831
O         88.58552       87.57380       71.58100
H         91.76968       90.50682       72.38138
H         93.22261       88.04400       71.89581
H         91.11360       87.34076       70.71645
H         90.52994       89.04642       70.83459
H         90.71061       88.84628       73.37777
H         91.17946       87.12460       73.20185
N         92.73225       89.96100       69.14037
C         93.13985       90.10512       67.76175
H         94.24688       90.10540       67.68444
H         92.71614       89.27547       67.15839
H         92.75622       91.06755       67.35678
H         92.14900       90.69637       69.54171
Ca        86.32871       88.00370       73.18007
O         85.60890       90.93994       74.70875
H         86.26417       91.52117       75.16994
H         85.06645       91.56284       74.16288
O         87.98279       89.60138       76.17377
H         87.75192       88.72763       76.57145
H         88.94402       89.71225       76.37919

Ca 1.0



