%chk=holoCaM.loop2.water1.frame371.chk
%nprocshared=20
%mem=10GB
%nosave
#b3lyp/svp scf=(tight,noincore,xqc) Test 
#IOP(5/87=12) Density=Current Pop=(MK,readradii) iop(6/33=2) iop(6/42=6)

holoCaM.loop2.water1.frame371 

   -2  1 
C        -22.82959       12.03282       69.39061
C        -22.77642       10.53484       69.49745
O        -21.77412        9.94374       69.12306
H        -23.78993       12.43436       69.78128
H        -22.00378       12.47785       69.98384
H        -22.72941       12.33843       68.32931
N        -23.82955        9.85355       70.02145
C        -23.84868        8.40635       70.20433
C        -23.78062        7.70242       68.84615
O        -24.55525        8.05802       67.96879
C        -25.12841        8.02771       70.98205
C        -25.01812        6.68809       71.63551
O        -24.82785        5.68402       70.98140
O        -25.11339        6.59698       72.97214
H        -24.64639       10.40122       70.33643
H        -22.98187        8.13083       70.84728
H        -26.02390        8.08898       70.32656
H        -25.26849        8.74823       71.81850
N        -22.89110        6.69171       68.60558
C        -22.72147        6.04579       67.29994
C        -23.39946        4.68534       67.20162
O        -23.46995        4.15281       66.10266
C        -21.23106        5.90456       66.98129
H        -22.32413        6.35734       69.38705
H        -23.19389        6.68170       66.52044
H        -20.75410        5.21799       67.71472
H        -21.08470        5.47680       65.96722
H        -20.72771        6.89254       67.03018
N        -23.96803        4.09130       68.28388
C        -24.80604        2.89828       68.22524
C        -26.25940        3.24952       68.56722
O        -27.09760        2.35911       68.55593
C        -24.22473        1.78790       69.12869
C        -23.93697        2.24174       70.53545
O        -24.90398        2.78700       71.29281
O        -22.81019        2.13175       70.99131
H        -23.85776        4.53658       69.19849
H        -24.84376        2.48597       67.19300
H        -23.27219        1.42863       68.67865
H        -24.92665        0.92627       69.14976
N        -26.64113        4.53773       68.81600
C        -28.00780        4.97500       69.03432
C        -28.65821        4.37741       70.25673
O        -29.78014        3.90348       70.15152
H        -25.94436        5.29288       68.79935
H        -28.62144        4.77379       68.12958
H        -27.98818        6.07744       69.18455
N        -28.02504        4.39663       71.46072
C        -28.64429        3.97619       72.71290
C        -28.56174        5.07867       73.77114
O        -28.99180        4.84167       74.89179
C        -27.99641        2.66738       73.20509
C        -28.29174        1.52805       72.25196
N        -27.29959        0.79142       71.70307
O        -29.45365        1.25703       71.98547
H        -27.05107        4.72367       71.49539
H        -29.72783        3.76642       72.57248
H        -28.44164        2.39006       74.18466
H        -26.90441        2.80968       73.34812
H        -26.31585        0.96779       71.93577
H        -27.51942        0.02061       71.05484
N        -28.07649        6.32420       73.48576
C        -28.05043        7.41734       74.44328
C        -27.01877        7.29134       75.54818
O        -26.94070        8.22775       76.33112
H        -27.78343        6.55730       72.52756
H        -29.06465        7.55650       74.87556
H        -27.79148        8.34923       73.89263
N        -26.17326        6.22259       75.67477
C        -25.11471        6.17017       76.67969
C        -23.76085        6.08994       75.93488
O        -23.50629        4.77304       75.53455
C        -25.36638        4.98487       77.64889
C        -24.26324        4.82987       78.70027
O        -26.58590        5.17970       78.31780
H        -26.24590        5.42905       75.02259
H        -25.11943        7.10546       77.27938
H        -25.40247        4.02646       77.07785
H        -27.30586        4.86766       77.70959
H        -24.50740        3.98162       79.37429
H        -23.28668        4.60241       78.22465
H        -24.16769        5.75522       79.30632
N        -22.62375        6.62926       76.69594
C        -21.47420        6.99950       75.82896
C        -20.33882        6.03026       76.09750
O        -19.95641        5.85283       77.24672
C        -21.03990        8.50020       76.02544
C        -22.10803        9.42997       75.37555
C        -19.65175        8.78210       75.40579
C        -21.85053       10.92884       75.55835
H        -22.93407        7.45442       77.25766
H        -21.72804        6.91740       74.75006
H        -20.95268        8.71188       77.11404
H        -23.10657        9.21500       75.80794
H        -22.16104        9.22208       74.28252
H        -19.65707        8.58743       74.31415
H        -19.32710        9.82574       75.58660
H        -18.87416        8.15549       75.88695
H        -22.67242       11.50140       75.07792
H        -21.81884       11.18639       76.63698
H        -20.90863       11.25132       75.07025
N        -19.69491        5.43554       75.04958
C        -18.52326        4.57862       75.18588
C        -17.27831        5.37314       74.83294
O        -17.41015        6.53648       74.47565
C        -18.67331        3.34791       74.27008
C        -19.91457        2.56383       74.59339
O        -20.07127        2.01652       75.81353
O        -20.78486        2.41643       73.74968
H        -19.98200        5.68661       74.09211
H        -18.40639        4.24840       76.24215
H        -17.79424        2.67871       74.37731
H        -18.72054        3.68900       73.21032
N        -16.02600        4.85572       74.96272
C        -14.83159        5.66523       74.74184
C        -14.72320        6.18036       73.30264
O        -14.59863        7.38417       73.15934
C        -13.53839        4.94732       75.18792
C        -12.33925        5.85788       75.03260
C        -12.24423        7.04716       75.77993
C        -11.31523        5.53772       74.12458
C        -11.14903        7.89933       75.61652
C        -10.22221        6.39521       73.96313
C        -10.13955        7.57488       74.70767
H        -15.92064        3.88238       75.29570
H        -14.91640        6.55204       75.41128
H        -13.38356        4.02028       74.61308
H        -13.62394        4.64641       76.25448
H        -13.01699        7.31780       76.48808
H        -11.36751        4.63233       73.53287
H        -11.08514        8.81322       76.19318
H         -9.44041        6.14711       73.25728
H         -9.29409        8.23831       74.58003
N        -14.76103        5.36678       72.19281
C        -14.67408        5.86569       70.81812
C        -15.56819        7.05740       70.55744
O        -15.14082        8.03566       69.95731
C        -15.18200        4.67488       69.98423
C        -14.67431        3.50190       70.77862
C        -14.99297        3.93573       72.20556
H        -13.61322        6.09342       70.57494
H        -16.29429        4.60984       70.03003
H        -14.88525        4.70039       68.91412
H        -15.09298        2.51308       70.49386
H        -13.56785        3.47514       70.65417
H        -16.05891        3.75258       72.46654
H        -14.33268        3.36138       72.87447
N        -16.84770        7.01153       70.99460
C        -17.86279        8.02062       70.74329
C        -17.47751        9.33747       71.39378
O        -17.40076       10.34183       70.70159
C        -19.21621        7.49563       71.26123
C        -19.60255        6.17548       70.54290
C        -20.79643        5.52628       71.14995
O        -21.47875        6.15505       72.11069
O        -21.14296        4.41507       70.78531
H        -17.10769        6.17963       71.54553
H        -17.97363        8.17247       69.64584
H        -20.01616        8.25207       71.10174
H        -19.12630        7.30485       72.35297
H        -18.80489        5.41630       70.63249
H        -19.76682        6.36408       69.46503
N        -17.18973        9.39834       72.72226
C        -16.78437       10.61984       73.38137
H        -15.86184       11.01845       72.90820
H        -17.59612       11.37387       73.31958
H        -16.56849       10.41475       74.45266
H        -17.23554        8.54461       73.28507
Ca       -22.87626        5.06049       73.42027
O        -24.45317        2.18087       74.31849
H        -23.89478        1.98506       75.11205
H        -24.84674        1.30721       74.06969

Ca 1.0



