%chk=holoCaM-CaMKII.loop1.water2.frame353.chk
%nprocshared=20
%mem=10GB
%nosave
#b3lyp/svp scf=(tight,noincore,xqc) Test 
#IOP(5/87=12) Density=Current Pop=(MK,readradii) iop(6/33=2) iop(6/42=6)

holoCaM-CaMKII.loop1.water2.frame353 

   0  1 
C         25.10046       69.94950       46.38275
C         25.64897       71.29859       46.72815
O         24.90963       72.10077       47.28019
H         24.24033       70.06697       45.69123
H         25.86834       69.30903       45.90294
H         24.75202       69.45145       47.31313
N         26.95138       71.61780       46.47813
C         27.49678       72.90129       46.88821
C         26.95930       74.02043       46.00718
O         27.25937       74.03829       44.82057
C         29.03474       72.90099       46.84512
C         29.58250       74.08794       47.58563
O         28.74920       74.91566       48.24713
O         30.78380       74.23659       47.68474
H         27.57477       70.90518       46.06805
H         27.20216       73.03600       47.95505
H         29.40107       72.87373       45.79496
H         29.41655       71.99604       47.36737
N         26.12653       74.96905       46.51692
C         25.51100       76.00254       45.68824
C         26.44844       77.13480       45.29251
O         26.08593       77.85893       44.37468
C         24.23770       76.55028       46.35625
C         23.11587       75.50820       46.61169
C         22.58484       74.83419       45.32860
C         23.34545       73.55198       44.92453
N         22.99553       73.14423       43.56659
H         25.82644       74.86329       47.49418
H         25.21009       75.55703       44.72242
H         23.80903       77.34202       45.70359
H         24.50980       77.02973       47.32137
H         22.28143       76.09991       47.04714
H         23.39152       74.74154       47.36310
H         22.57705       75.59188       44.51609
H         21.53342       74.51270       45.49421
H         23.08788       72.74406       45.64257
H         24.43782       73.65371       44.96433
H         23.50029       72.25804       43.33458
H         21.96567       72.99318       43.48063
H         23.30473       73.88509       42.89439
N         27.64150       77.37247       45.91271
C         28.57421       78.40690       45.45598
C         29.95075       77.82758       45.11404
O         30.82682       78.59654       44.74294
C         28.62194       79.59311       46.44883
C         29.19424       79.31618       47.80555
O         29.24371       80.30926       48.71351
O         29.63253       78.21913       48.09289
H         27.89666       76.81137       46.73628
H         28.20278       78.86620       44.51352
H         27.58468       79.97341       46.58027
H         29.22288       80.41265       45.99748
N         30.19491       76.47983       45.13489
C         31.43802       75.87950       44.66725
C         32.65193       76.08149       45.55871
O         33.72348       75.65606       45.15068
H         29.43844       75.82818       45.37912
H         31.65414       76.27566       43.65046
H         31.29212       74.78197       44.57029
N         32.59061       76.70735       46.76872
C         33.78152       76.98281       47.57938
C         34.49714       75.74231       48.14788
O         35.55359       75.92577       48.73544
C         33.43515       77.98230       48.71372
C         32.46186       77.46575       49.73564
O         32.02073       76.33612       49.65888
O         32.06677       78.26050       50.74737
H         31.68170       77.06717       47.08789
H         34.50592       77.50970       46.91959
H         32.99528       78.89453       48.25552
H         34.36448       78.27827       49.24417
N         33.99827       74.47343       48.04025
C         34.66917       73.28240       48.55997
C         33.89426       72.57712       49.66695
O         34.32240       71.50414       50.07124
H         33.10912       74.32178       47.55872
H         35.67709       73.51968       48.96386
H         34.80897       72.57791       47.71268
N         32.80036       73.13814       50.25646
C         32.07103       72.55486       51.38453
C         30.56251       72.63315       51.18659
O         30.09702       73.25539       50.24576
C         32.45907       73.29304       52.70123
C         33.79030       72.77793       53.24339
O         32.56633       74.68293       52.51330
H         32.51378       74.07029       49.94720
H         32.30627       71.47164       51.48730
H         31.71610       73.08745       53.50291
H         31.79384       74.97797       51.97114
H         34.61186       72.93292       52.51533
H         34.03788       73.31005       54.18699
H         33.70311       71.69402       53.47582
N         29.73505       71.98095       52.05160
C         28.27651       71.96714       51.95876
C         27.69935       72.38372       53.30607
O         28.12956       71.84058       54.31684
C         27.77493       70.53795       51.58791
C         28.46713       70.02291       50.29834
C         26.23966       70.54655       51.40854
C         28.11466       68.57252       49.95791
H         30.16784       71.41558       52.80002
H         27.91982       72.64999       51.15456
H         28.03979       69.84665       52.41899
H         29.56777       70.04607       50.44244
H         28.21581       70.67885       49.43595
H         25.73678       70.88994       52.32999
H         25.94707       71.21955       50.57228
H         25.84152       69.53358       51.20791
H         28.69791       68.24956       49.07072
H         28.37081       67.90745       50.81063
H         27.04119       68.45617       49.70971
N         26.66069       73.26237       53.39600
C         26.01448       73.60630       54.66090
C         24.66396       72.91808       54.74181
O         24.25779       72.28301       53.78167
C         25.85268       75.14349       54.80774
C         27.17526       75.88345       54.62710
O         24.93830       75.62017       53.85706
H         26.24791       73.62779       52.53050
H         26.62313       73.23257       55.51302
H         25.46214       75.34932       55.83139
H         24.58512       76.48430       54.19681
H         27.01981       76.97455       54.77122
H         27.93208       75.52695       55.35492
H         27.54235       75.72345       53.59399
N         23.90887       72.98868       55.86849
C         22.57610       72.39378       55.96303
C         21.64143       73.03582       54.94791
O         20.97464       72.32220       54.21294
C         21.99265       72.51091       57.39452
C         22.79157       71.66916       58.40681
O         21.87638       73.85198       57.80912
H         24.29912       73.49279       56.67801
H         22.63620       71.30306       55.74209
H         20.96879       72.07636       57.38437
H         22.74915       74.14865       58.17632
H         22.79586       70.60242       58.09387
H         23.84303       72.01579       58.48532
H         22.31927       71.73478       59.40931
N         21.58647       74.39144       54.83238
C         20.73246       75.10854       53.88737
C         20.96098       74.64870       52.45610
O         19.99835       74.29698       51.78823
C         20.98998       76.62320       54.03854
C         20.07217       77.48541       53.16265
C         20.24397       78.96874       53.51299
C         19.30498       79.85095       52.68282
N         19.40740       81.25039       53.09594
H         22.20546       74.94495       55.44502
H         19.66819       74.92016       54.15313
H         22.05247       76.86268       53.80947
H         20.79774       76.88281       55.10334
H         19.01540       77.19800       53.35346
H         20.30336       77.31567       52.08792
H         21.29754       79.28210       53.34150
H         20.00240       79.10791       54.58997
H         18.25491       79.51055       52.82354
H         19.56419       79.75890       51.60467
H         19.13151       81.34651       54.10082
H         20.38526       81.59704       52.96515
H         18.75884       81.82812       52.51419
N         22.21565       74.60024       51.93340
C         22.51623       74.15924       50.57136
C         21.94313       72.77238       50.32399
O         21.22679       72.59599       49.34791
C         24.04082       74.20962       50.30338
C         24.56226       75.66307       50.38362
C         26.02612       75.78788       50.08204
O         26.40627       76.53327       49.19406
O         26.93307       75.13050       50.82221
H         22.99091       74.85866       52.55545
H         22.03941       74.85271       49.84228
H         24.24535       73.81808       49.28569
H         24.57101       73.55538       51.02518
H         24.40353       76.07742       51.39556
H         23.99314       76.29256       49.66608
N         22.14528       71.76156       51.21014
C         21.52466       70.46314       51.06135
H         20.41916       70.57608       51.01414
H         21.88867       69.96726       50.13846
H         21.76832       69.82486       51.93791
H         22.71112       71.93301       52.04648
Ca        29.37221       76.26381       49.93471
O         27.93901       78.47039       51.20253
H         28.39376       79.34620       51.12950
H         27.15887       78.63822       51.78762
O         29.88935       76.22778       52.87849
H         30.66899       76.37857       53.46807
H         29.39584       77.08359       52.90445

Ca 1.0



