%chk=holoCaM-CaMKII.loop4.water2.frame39.chk
%nprocshared=20
%mem=10GB
%nosave
#b3lyp/svp scf=(tight,noincore,xqc) Test 
#IOP(5/87=12) Density=Current Pop=(MK,readradii) iop(6/33=2) iop(6/42=6)

holoCaM-CaMKII.loop4.water2.frame39 

   -3  1 
C          5.92875       70.56962        2.54737
C          6.10716       70.38435        1.06979
O          6.59658       71.28196        0.40450
H          4.85116       70.47426        2.80205
H          6.49971       69.79046        3.09441
H          6.28242       71.57190        2.86839
N          5.72063       69.21875        0.48972
C          5.80498       68.94707       -0.94323
C          4.90578       69.91288       -1.71002
O          3.73489       70.01681       -1.37135
C          5.40578       67.47692       -1.17698
C          5.46500       67.06765       -2.61198
O          4.36958       66.54435       -3.18401
O          6.49950       67.16845       -3.25178
H          5.34036       68.48638        1.11135
H          6.86070       69.05764       -1.27970
H          4.37760       67.29651       -0.79285
H          6.10504       66.82447       -0.60976
N          5.39355       70.65376       -2.75355
C          4.61929       71.69254       -3.44544
C          4.25086       71.28059       -4.88191
O          3.48085       71.98992       -5.51230
C          5.45302       73.02678       -3.44536
C          6.05681       73.38440       -2.06032
C          4.69062       74.24156       -4.00991
C          5.03365       73.66189       -0.95896
H          6.36763       70.49481       -3.05486
H          3.66107       71.85227       -2.90593
H          6.32947       72.86384       -4.11013
H          6.70560       74.28159       -2.16871
H          6.72467       72.56339       -1.73174
H          5.33980       75.14314       -3.97787
H          4.41965       74.10421       -5.07263
H          3.76831       74.44193       -3.42774
H          4.39266       72.77513       -0.78215
H          5.57231       73.89741       -0.01643
H          4.40032       74.53467       -1.21479
N          4.78005       70.17262       -5.47668
C          4.55701       69.80750       -6.88237
C          4.05658       68.37519       -7.07007
O          3.88828       67.95957       -8.20843
C          5.83528       70.09118       -7.70877
C          7.11745       69.46693       -7.22107
O          8.15667       69.71088       -7.81174
O          7.15787       68.71815       -6.10523
H          5.42586       69.59848       -4.92753
H          3.77494       70.45616       -7.33556
H          5.99884       71.19120       -7.69212
H          5.66124       69.79860       -8.76722
N          3.72989       67.58598       -6.01328
C          3.15966       66.25405       -6.14067
C          4.12116       65.21542       -6.67288
O          3.75992       64.48276       -7.58241
H          3.81240       67.96720       -5.06336
H          2.22815       66.28804       -6.74685
H          2.87022       65.90704       -5.12670
N          5.33763       65.04580       -6.08695
C          6.22323       63.91214       -6.34163
C          6.50224       63.13855       -5.04502
O          7.28944       62.20258       -5.08123
C          7.50556       64.35825       -7.07688
C          8.21478       65.52907       -6.47199
O          8.64485       65.49702       -5.20252
O          8.42403       66.51889       -7.15288
H          5.63413       65.72867       -5.37434
H          5.74737       63.17507       -7.02570
H          7.22444       64.64015       -8.11597
H          8.20639       63.49856       -7.15016
N          5.83356       63.41262       -3.88167
C          5.97327       62.63666       -2.65805
C          7.27073       62.84404       -1.90130
O          7.39944       62.25086       -0.84099
H          5.11100       64.14330       -3.86637
H          5.82189       61.55853       -2.88186
H          5.16469       62.94866       -1.96014
N          8.25762       63.67455       -2.34542
C          9.47571       63.95588       -1.58413
C          9.59122       65.44840       -1.31388
O          8.84132       66.22195       -1.89005
C         10.72196       63.40156       -2.31463
C         10.89023       63.94175       -3.74745
C         12.10628       63.41187       -4.46457
N         12.33989       63.78383       -5.74490
O         12.87820       62.64456       -3.90793
H          8.13263       64.15491       -3.24069
H          9.42625       63.45622       -0.59287
H         10.62919       62.29455       -2.37090
H         11.62835       63.64115       -1.71689
H         10.95498       65.04989       -3.72081
H         10.01378       63.63243       -4.34994
H         11.69444       64.42305       -6.23232
H         13.16218       63.42855       -6.25453
N         10.48756       65.91701       -0.39358
C         10.62364       67.33602       -0.07235
C         12.08238       67.73413       -0.23345
O         12.92537       67.23617        0.49903
C         10.10370       67.62197        1.36519
C         10.16595       69.12391        1.69339
C          8.65079       67.14335        1.52838
H         11.06347       65.23981        0.12828
H         10.00151       67.94337       -0.76652
H         10.73015       67.06924        2.09964
H          9.80396       69.30754        2.72758
H         11.20532       69.50398        1.62767
H          9.52590       69.70172        0.99221
H          8.28805       67.34813        2.55818
H          7.98806       67.66428        0.80723
H          8.57113       66.04927        1.35817
N         12.45085       68.61008       -1.20934
C         13.83625       69.00852       -1.45698
C         14.36785       69.89032       -0.32493
O         13.61953       70.21767        0.58583
C         13.88440       69.75346       -2.82029
C         15.26946       70.03422       -3.34556
N         16.13202       69.02290       -3.60107
O         15.61480       71.18641       -3.55428
H         11.71683       68.96023       -1.83946
H         14.44844       68.08463       -1.54090
H         13.30632       70.70108       -2.73532
H         13.38926       69.12085       -3.58541
H         15.86035       68.04223       -3.44238
H         17.07724       69.22210       -3.96080
N         15.65776       70.33554       -0.33505
C         16.19109       71.29585        0.62496
C         15.42072       72.60438        0.54733
O         14.96914       73.07590        1.57912
C         17.68755       71.56360        0.33956
C         18.26251       72.60566        1.27443
C         18.32121       72.37731        2.66026
C         18.72994       73.82799        0.76177
C         18.83301       73.35808        3.51643
C         19.23850       74.80692        1.61927
C         19.29028       74.57564        3.00093
O         19.77376       75.51408        3.83974
H         16.29000       69.99802       -1.07191
H         16.10690       70.87549        1.65226
H         17.79186       71.90628       -0.71354
H         18.26717       70.62048        0.44110
H         17.96865       71.44345        3.07920
H         18.69161       74.02972       -0.30152
H         18.87051       73.17301        4.58267
H         19.58793       75.74574        1.20835
H         20.09346       76.37119        3.52316
N         15.26413       73.26660       -0.63680
C         14.57716       74.55474       -0.73219
C         13.08047       74.49364       -0.41114
O         12.47208       75.55447       -0.37207
C         14.80060       75.20677       -2.11724
C         14.08972       74.48540       -3.27382
C         14.36503       75.18125       -4.57574
O         13.99794       76.46619       -4.74722
O         14.91576       74.58495       -5.48721
H         15.70086       72.86525       -1.47870
H         15.06232       75.23160        0.00693
H         15.89480       75.24985       -2.31657
H         14.42678       76.25421       -2.07658
H         12.99206       74.48459       -3.10634
H         14.43259       73.43453       -3.33527
N         12.41909       73.32102       -0.16223
C         10.99808       73.25976        0.18089
C         10.78624       72.88854        1.64484
O          9.64542       72.91738        2.08572
C         10.26059       72.23917       -0.71123
C         10.37906       72.53745       -2.20856
C          9.58727       71.53637       -3.00224
O          8.69239       71.90811       -3.74212
O          9.85888       70.22285       -2.90256
H         12.93369       72.43484       -0.19251
H         10.53028       74.25914        0.04397
H          9.18239       72.23811       -0.43500
H         10.67444       71.22457       -0.51692
H         11.44280       72.47806       -2.52129
H         10.00000       73.56136       -2.41761
N         11.82226       72.54235        2.46194
C         11.67763       72.23036        3.86746
H         12.31258       72.92576        4.45719
H         10.63055       72.32775        4.21927
H         12.02374       71.19165        4.04980
H         12.77173       72.48660        2.09010
Ca         9.11300       68.33981       -5.04645
O         10.82223       70.76557       -6.10256
H         11.00421       70.10751       -6.81976
H          9.93384       71.13964       -6.32860
O         11.94109       67.22575       -5.09550
H         11.34157       66.85532       -5.79077
H         11.92438       68.20253       -5.25362

Ca 1.0



