%chk=holoCaM-CaMKII.loop3.water2.frame78.chk
%nprocshared=20
%mem=10GB
%nosave
#b3lyp/svp scf=(tight,noincore,xqc) Test 
#IOP(5/87=12) Density=Current Pop=(MK,readradii) iop(6/33=2) iop(6/42=6)

holoCaM-CaMKII.loop3.water2.frame78 

   0  1 
C         -3.09212       59.05482        1.25236
C         -2.09566       58.34711        2.12377
O         -2.38641       57.25756        2.59538
H         -4.01148       59.27324        1.83464
H         -2.68395       60.01493        0.86931
H         -3.34741       58.41320        0.38399
N         -0.89679       58.92871        2.39608
C          0.13506       58.32892        3.22482
C          0.24209       59.13559        4.50376
O          1.22248       59.82731        4.73998
C          1.43544       58.24381        2.40867
C          2.56897       57.70560        3.22208
O          3.57257       58.37803        3.37451
O          2.47991       56.49607        3.79981
H         -0.70341       59.86709        2.01205
H         -0.12719       57.28911        3.52817
H          1.70851       59.24907        2.02163
H          1.27421       57.56554        1.54439
N         -0.78155       59.05358        5.39359
C         -0.80830       59.71962        6.69041
C          0.32503       59.20346        7.56804
O          1.10902       60.01128        8.04642
C         -2.18769       59.50513        7.35944
C         -3.31005       60.16260        6.52392
C         -4.70182       59.90929        7.11615
C         -5.82836       60.58895        6.31043
N         -5.94641       60.06876        4.94448
H         -1.57756       58.45141        5.13347
H         -0.68412       60.81777        6.55195
H         -2.18695       59.96498        8.37219
H         -2.38418       58.41572        7.46922
H         -3.29384       59.75538        5.49600
H         -3.12675       61.25832        6.46889
H         -4.72681       60.31330        8.15123
H         -4.89563       58.81536        7.16263
H         -5.66167       61.68849        6.27818
H         -6.78802       60.40567        6.84220
H         -6.77768       60.50723        4.48591
H         -5.10604       60.31200        4.37419
H         -6.08138       59.03183        4.96097
N          0.49356       57.86513        7.79395
C          1.58030       57.31788        8.62055
C          2.99148       57.68825        8.13907
O          3.92740       57.49091        8.90154
C          1.45225       55.78738        8.81652
C          1.50492       55.00524        7.53908
O          0.61920       55.13495        6.71340
O          2.48995       54.11192        7.32674
H         -0.20081       57.22977        7.37920
H          1.46909       57.77583        9.62743
H          0.48790       55.55275        9.31548
H          2.27084       55.43940        9.48314
N          3.22015       58.27938        6.93342
C          4.49477       58.86578        6.54721
C          5.63230       57.88345        6.41019
O          6.65236       58.07828        7.05605
H          2.44064       58.39933        6.27917
H          4.76369       59.65631        7.28238
H          4.37215       59.36904        5.56617
N          5.55012       56.83566        5.54376
C          6.66641       55.93837        5.25387
C          7.00296       55.93028        3.75735
O          7.81724       55.11746        3.34245
C          6.38138       54.53389        5.82546
C          5.33283       53.73725        5.09583
N          5.62284       52.49976        4.63037
O          4.21096       54.19061        4.94836
H          4.66111       56.67869        5.05312
H          7.57933       56.27599        5.79247
H          6.07585       54.64804        6.88850
H          7.33221       53.95711        5.82120
H          6.55739       52.08732        4.76824
H          4.90816       51.93794        4.14859
N          6.46350       56.85095        2.89822
C          6.78627       56.93258        1.48133
C          6.11359       55.88511        0.61068
O          6.39011       55.88586       -0.57982
H          5.87190       57.60143        3.27153
H          7.89094       56.89309        1.35790
H          6.44643       57.91788        1.09388
N          5.22743       54.97114        1.10484
C          4.62326       53.91435        0.29183
C          3.10611       53.93620        0.37128
O          2.56345       53.99989        1.46440
C          5.15657       52.55822        0.78215
C          6.63345       52.43727        0.48536
C          7.57767       52.37083        1.52072
C          7.07801       52.39685       -0.84834
C          8.94187       52.27599        1.22901
C          8.43973       52.29805       -1.13887
C          9.37787       52.23948       -0.09971
O         10.69608       52.14819       -0.36613
H          5.00375       54.97924        2.11039
H          4.90092       54.01001       -0.77879
H          4.63408       51.72208        0.26792
H          4.95111       52.46778        1.86878
H          7.26385       52.40382        2.55131
H          6.36941       52.43955       -1.66606
H          9.66068       52.23313        2.03738
H          8.76258       52.26857       -2.17183
H         11.03567       52.12079       -1.27218
N          2.36304       53.78565       -0.76992
C          0.90503       53.69815       -0.79599
C          0.49082       52.25745       -1.08902
O          0.90379       51.68875       -2.08829
C          0.29276       54.75130       -1.76151
C          0.58279       56.16864       -1.18954
C         -1.22793       54.52534       -1.91455
C          0.05842       57.32563       -2.03888
H          2.85537       53.66044       -1.66719
H          0.49913       53.95126        0.18556
H          0.75595       54.64123       -2.76674
H          1.68083       56.30304       -1.08529
H          0.12753       56.25783       -0.17752
H         -1.43564       53.51691       -2.32968
H         -1.74436       54.62012       -0.93523
H         -1.67071       55.24314       -2.63291
H          0.33912       58.28540       -1.55451
H          0.50180       57.29170       -3.05497
H         -1.04801       57.30877       -2.10959
N         -0.34039       51.61958       -0.21040
C         -0.76718       50.22990       -0.27717
C         -2.28603       50.14649       -0.41209
O         -2.94079       51.17053       -0.52565
C         -0.28132       49.51488        1.00174
O         -0.87165       50.06844        2.15115
H         -0.70625       52.14872        0.58307
H         -0.31025       49.71917       -1.15185
H          0.83140       49.56844        1.06227
H         -0.52586       48.43370        0.97456
H         -0.21859       50.70628        2.54137
N         -2.90882       48.93377       -0.43157
C         -4.34614       48.76252       -0.63093
C         -5.19515       49.38731        0.46752
O         -6.07198       50.17748        0.14447
C         -4.68544       47.26924       -0.72802
H         -2.32576       48.08821       -0.34896
H         -4.62438       49.21867       -1.60750
H         -5.77006       47.13574       -0.93046
H         -4.11709       46.80579       -1.56227
H         -4.42834       46.73892        0.21375
N         -5.03579       49.03767        1.77733
C         -5.94732       49.46797        2.83957
C         -6.06651       50.97673        2.92564
O         -7.16566       51.49233        2.77693
C         -5.50220       48.89912        4.19413
H         -4.26446       48.39516        2.01779
H         -6.95662       49.05204        2.62013
H         -5.47144       47.78998        4.15025
H         -4.49060       49.26669        4.46953
H         -6.21789       49.19766        4.99021
N         -4.97134       51.74623        3.16169
C         -5.01562       53.20461        3.25141
C         -5.61217       53.81082        1.98853
O         -6.53959       54.60084        2.09975
C         -3.61676       53.76733        3.60736
C         -2.53952       53.50892        2.54765
C         -1.14930       53.80066        3.03251
O         -0.21847       53.59804        2.28735
O         -0.85349       54.19589        4.27580
H         -4.07081       51.26216        3.28568
H         -5.67135       53.48565        4.10646
H         -3.31203       53.27621        4.55782
H         -3.67931       54.86223        3.79303
H         -2.74875       54.11805        1.64288
H         -2.53767       52.43951        2.25606
N         -5.18135       53.42625        0.75441
C         -5.75179       53.91358       -0.48594
H         -6.54677       54.67083       -0.32070
H         -4.95270       54.36967       -1.10600
H         -6.19528       53.06144       -1.04439
H         -4.43837       52.72053        0.68308
Ca         1.40203       54.04244        4.47161
O          0.08581       51.75433        5.60661
H          0.39206       50.83040        5.78257
H         -0.64729       51.90842        6.25359
O          2.46147       51.32495        3.28303
H          2.24950       50.56869        3.88575
H          2.83636       50.89891        2.47190

Ca 1.0



