%chk=holoCaM-CaMKII.loop3.water2.frame465.chk
%nprocshared=20
%mem=10GB
%nosave
#b3lyp/svp scf=(tight,noincore,xqc) Test 
#IOP(5/87=12) Density=Current Pop=(MK,readradii) iop(6/33=2) iop(6/42=6)

holoCaM-CaMKII.loop3.water2.frame465 

   0  1 
C         65.43089       66.47185       48.71890
C         65.78074       65.19266       48.02078
O         66.68651       65.18303       47.19921
H         64.36913       66.72743       48.51705
H         65.57191       66.34544       49.81298
H         66.07451       67.30513       48.36656
N         65.07961       64.06242       48.30538
C         65.33937       62.76891       47.69260
C         64.11513       62.37040       46.89231
O         63.02184       62.33806       47.44100
C         65.67728       61.76171       48.79926
C         66.11585       60.41468       48.29962
O         66.16444       60.10348       46.98708
O         66.43557       59.56734       49.11718
H         64.31325       64.12265       48.99497
H         66.22258       62.82814       47.01773
H         64.80284       61.63566       49.47299
H         66.51290       62.17287       49.40417
N         64.22983       62.09915       45.56338
C         63.08984       61.87315       44.68226
C         62.23905       60.70493       45.15284
O         61.04835       60.90304       45.35062
C         63.58093       61.69477       43.22888
C         62.44908       61.79655       42.19393
C         62.98039       61.79400       40.74587
C         63.63510       60.47783       40.28689
N         62.67959       59.37077       40.24929
H         65.17328       62.10909       45.15015
H         62.47185       62.79972       44.69895
H         64.11669       60.73500       43.13075
H         64.29094       62.52294       43.00622
H         61.93914       62.77317       42.34626
H         61.69499       60.99773       42.34553
H         63.72495       62.61481       40.64280
H         62.13972       62.02213       40.05583
H         64.49320       60.20995       40.93471
H         64.03426       60.63625       39.26022
H         63.15745       58.52431       39.86449
H         62.33550       59.14614       41.20929
H         61.87488       59.61354       39.62657
N         62.78678       59.47818       45.40396
C         62.00226       58.34424       45.89785
C         62.31104       58.00068       47.35569
O         61.70398       57.06779       47.86436
C         62.12362       57.12854       44.94814
C         63.48568       56.49882       44.84540
O         63.64554       55.53116       44.11935
O         64.52816       56.96984       45.54520
H         63.80271       59.36074       45.27780
H         60.92149       58.60538       45.89548
H         61.80798       57.44578       43.93067
H         61.41795       56.34095       45.29243
N         63.15866       58.75225       48.12304
C         63.31118       58.53801       49.55796
C         63.99485       57.24105       49.94476
O         63.93040       56.89332       51.11565
H         63.62749       59.56848       47.71263
H         62.29466       58.55834       50.00857
H         63.88271       59.37190       50.01623
N         64.66909       56.47228       49.04153
C         65.22316       55.15696       49.36900
C         66.33281       55.16679       50.42350
O         66.74620       54.08615       50.82006
C         65.70474       54.44979       48.07284
C         67.07436       54.90755       47.50335
N         68.13148       54.00322       47.94510
O         67.41241       56.18571       47.94562
H         64.72455       56.79935       48.06898
H         64.36982       54.56019       49.76363
H         64.92287       54.59018       47.29598
H         65.74909       53.35197       48.24694
H         67.96677       53.05802       47.53227
H         69.04115       54.35227       47.56825
N         66.87690       56.32521       50.90744
C         67.93478       56.35726       51.90883
C         69.18040       57.10764       51.46329
O         70.07428       57.23581       52.28788
H         66.52630       57.23330       50.57582
H         68.23817       55.33463       52.21794
H         67.53359       56.87416       52.80719
N         69.30968       57.66868       50.22147
C         70.46113       58.49125       49.82748
C         70.18028       59.30183       48.56300
O         69.14461       59.11547       47.94052
C         71.77270       57.66416       49.76489
C         71.82538       56.58322       48.70802
C         72.00385       56.91052       47.35288
C         71.76120       55.22748       49.07852
C         72.12194       55.90138       46.39066
C         71.86439       54.22150       48.11249
C         72.04922       54.55614       46.76420
O         72.16391       53.59722       45.82285
H         68.52538       57.57457       49.56981
H         70.58566       59.25944       50.62291
H         71.92765       57.19747       50.75753
H         72.64864       58.33179       49.62118
H         72.07955       57.94327       47.03985
H         71.63105       54.94586       50.11595
H         72.27513       56.16585       45.35174
H         71.80852       53.18287       48.41401
H         72.12510       52.65459       46.03967
N         71.02893       60.29992       48.17905
C         70.70272       61.25400       47.11991
C         71.72704       61.17885       46.00024
O         72.88885       61.49834       46.21140
C         70.59886       62.68362       47.73781
C         69.44338       62.71788       48.77348
C         70.38290       63.75796       46.65379
C         69.36878       64.00866       49.59045
H         71.89989       60.44716       48.71201
H         69.70806       61.02030       46.67867
H         71.55797       62.90579       48.25720
H         69.57226       61.89720       49.50986
H         68.48077       62.55920       48.24449
H         71.23011       63.76786       45.94266
H         69.44076       63.57358       46.09483
H         70.35270       64.77372       47.09377
H         70.31500       64.15548       50.15342
H         69.17361       64.89417       48.95509
H         68.53388       63.93079       50.31895
N         71.33450       60.76652       44.76090
C         72.20477       60.73401       43.58973
C         72.48894       62.14248       43.08803
O         71.95277       63.09689       43.62774
C         71.51290       59.94447       42.46014
O         71.24555       58.63536       42.89009
H         70.36400       60.45038       44.64713
H         73.15069       60.21047       43.85043
H         72.15453       59.89039       41.55599
H         70.57027       60.47206       42.18007
H         70.32875       58.40660       42.58482
N         73.31266       62.34416       42.02281
C         73.52169       63.65886       41.42509
C         72.24012       64.15439       40.77311
O         71.78114       65.23987       41.09924
C         74.63306       63.59379       40.37144
H         73.79863       61.53008       41.61629
H         73.86197       64.37466       42.20732
H         74.37660       62.88632       39.55487
H         74.80045       64.60163       39.93405
H         75.57923       63.25814       40.84640
N         71.61400       63.38969       39.83192
C         70.40766       63.79129       39.11290
C         69.26813       64.10820       40.05671
O         68.68385       65.17574       39.93172
C         69.97534       62.68216       38.14590
H         72.02425       62.46857       39.61256
H         70.62979       64.69341       38.49912
H         70.79029       62.47369       37.42022
H         69.73809       61.74614       38.69557
H         69.07634       63.00078       37.57508
N         68.91484       63.23605       41.04354
C         67.82997       63.49631       41.98755
C         68.04161       64.83595       42.66993
O         67.17427       65.69272       42.56787
C         67.71435       62.36826       43.04132
C         67.33264       61.01582       42.41403
C         67.14333       59.94916       43.45863
O         66.07600       59.36928       43.56238
O         68.15676       59.60099       44.26814
H         69.46700       62.37200       41.13806
H         66.86618       63.54312       41.43046
H         66.91695       62.65229       43.75902
H         68.66902       62.26917       43.60379
H         68.11852       60.67337       41.71168
H         66.39069       61.14255       41.84253
N         69.19683       65.09899       43.33814
C         69.49969       66.37881       43.94547
H         70.40948       66.80070       43.46753
H         68.67474       67.11206       43.82571
H         69.69469       66.23902       45.02761
H         69.91428       64.36715       43.39276
Ca        66.79279       57.96574       46.69123
O         67.31343       56.15335       43.40985
H         66.42101       56.53065       43.61057
H         67.79885       56.89104       42.96194
O         69.34653       56.92325       45.50421
H         69.37619       55.93831       45.40747
H         70.02852       57.25589       44.86938

Ca 1.0



