%chk=holoCaM-CaMKII.loop4.water1.frame291.chk
%nprocshared=20
%mem=10GB
%nosave
#b3lyp/svp scf=(tight,noincore,xqc) Test 
#IOP(5/87=12) Density=Current Pop=(MK,readradii) iop(6/33=2) iop(6/42=6)

holoCaM-CaMKII.loop4.water1.frame291 

   -3  1 
C         44.41724       46.79220       85.03934
C         43.48822       47.69671       85.79266
O         42.58654       48.24838       85.18412
H         45.18367       46.34789       85.70870
H         43.83446       45.96912       84.57495
H         44.93297       47.36975       84.24422
N         43.63598       47.88069       87.13258
C         42.75119       48.72342       87.92799
C         42.87500       50.19206       87.52466
O         43.98790       50.69942       87.50989
C         43.06814       48.53045       89.42534
C         42.07679       49.28894       90.23664
O         42.43824       50.12933       91.04092
O         40.77168       49.09226       89.99365
H         44.39166       47.36732       87.61313
H         41.70591       48.37106       87.77009
H         44.10614       48.84984       89.66581
H         42.96131       47.45486       89.68230
N         41.76700       50.93181       87.19374
C         41.83262       52.30806       86.68361
C         41.16883       53.33355       87.62216
O         41.41743       54.51593       87.43744
C         41.19476       52.39110       85.25018
C         41.57706       51.16481       84.37933
C         41.58975       53.70368       84.53648
C         40.89204       51.12530       83.01101
H         40.85064       50.47764       87.26050
H         42.90561       52.58867       86.60687
H         40.08793       52.35760       85.36665
H         41.22407       50.25304       84.89837
H         42.67900       51.10463       84.24892
H         42.69121       53.74438       84.39168
H         41.09774       53.79258       83.54914
H         41.27028       54.60073       85.09515
H         41.23632       51.94924       82.35579
H         41.14283       50.16974       82.50381
H         39.78848       51.17867       83.13166
N         40.32546       52.98148       88.64114
C         39.71637       53.95729       89.55655
C         40.23807       53.78982       90.98748
O         39.77575       54.49829       91.87101
C         38.16829       53.96222       89.43565
C         37.50882       52.65232       89.73960
O         37.69002       52.07082       90.93197
O         36.85909       52.07633       88.88183
H         40.10991       51.98845       88.79348
H         40.01080       54.99244       89.27770
H         37.90556       54.25661       88.39502
H         37.74862       54.73401       90.11617
N         41.29916       52.97346       91.25731
C         42.01988       52.95762       92.52122
C         41.36669       52.23929       93.68395
O         42.02394       52.17063       94.71389
H         41.73557       52.45131       90.48697
H         42.27367       54.00046       92.81291
H         42.98379       52.43035       92.34974
N         40.12169       51.67673       93.64304
C         39.56499       50.99775       94.81572
C         40.33691       49.73030       95.20146
O         40.15657       49.26923       96.31997
C         38.04384       50.74787       94.68742
C         37.61777       49.75091       93.64372
O         36.42945       49.52947       93.47741
O         38.51558       49.08367       92.90330
H         39.54556       51.78774       92.80306
H         39.67041       51.71626       95.66032
H         37.55480       51.72034       94.46051
H         37.65781       50.39209       95.66700
N         41.21889       49.12436       94.34816
C         42.09567       48.02438       94.73355
C         41.85105       46.72642       93.98386
O         42.68613       45.84237       94.09874
H         41.31979       49.48028       93.38703
H         42.03822       47.80072       95.82049
H         43.13577       48.35730       94.52487
N         40.71769       46.50556       93.25600
C         40.43342       45.25111       92.55144
C         40.14376       45.52985       91.08471
O         40.13757       46.68444       90.69949
C         39.23528       44.54984       93.21988
C         39.54894       44.17172       94.67703
C         38.39421       43.44375       95.31387
N         37.78683       43.93862       96.41771
O         38.00921       42.38743       94.83454
H         39.99694       47.23369       93.23210
H         41.30784       44.56574       92.59367
H         38.99757       43.61826       92.66299
H         38.34434       45.21594       93.18782
H         39.78193       45.08971       95.25844
H         40.44074       43.50852       94.70504
H         38.09836       44.82380       96.84333
H         37.00172       43.43180       96.85264
N         39.90577       44.51347       90.19794
C         39.66764       44.75457       88.77421
C         38.28233       44.24744       88.39693
O         38.04086       43.05062       88.45622
C         40.77408       44.07496       87.91838
C         40.60258       44.39438       86.42377
C         42.17612       44.52215       88.36193
H         39.91781       43.53947       90.53262
H         39.71313       45.84494       88.56096
H         40.71179       42.97265       88.05668
H         40.69140       45.48769       86.24639
H         41.38599       43.87818       85.82938
H         39.61720       44.04932       86.05260
H         42.29070       45.61867       88.24221
H         42.35958       44.25515       89.42395
H         42.95244       44.01275       87.75181
N         37.31196       45.12831       88.01682
C         35.95654       44.73020       87.63391
C         35.96108       44.03045       86.27021
O         37.00512       43.95916       85.63794
C         35.06947       46.00614       87.61567
C         33.59573       45.76273       87.41527
N         32.89027       45.01619       88.29742
O         33.02883       46.25666       86.45210
H         37.53799       46.13200       88.04630
H         35.56315       44.04540       88.41637
H         35.44645       46.69514       86.82871
H         35.17150       46.51949       88.59573
H         33.34631       44.59987       89.12197
H         31.88188       44.85499       88.15678
N         34.81463       43.50832       85.74275
C         34.72620       42.91986       84.40719
C         35.12081       43.93184       83.34768
O         35.95959       43.62041       82.51554
C         33.28208       42.44839       84.12201
C         33.15592       41.88816       82.72245
C         33.84209       40.71846       82.35507
C         32.37040       42.55246       81.76470
C         33.74426       40.22303       81.05123
C         32.27901       42.05866       80.46074
C         32.96635       40.89110       80.09953
O         32.88941       40.40550       78.84416
H         33.95576       43.54007       86.30699
H         35.40319       42.03881       84.34679
H         32.59847       43.31813       84.24199
H         32.97203       41.67783       84.85996
H         34.45412       40.19183       83.07635
H         31.84089       43.46192       82.02119
H         34.27820       39.32126       80.77923
H         31.67786       42.58726       79.73168
H         32.36712       40.84114       78.15545
N         34.53353       45.15933       83.31220
C         34.87897       46.18241       82.33289
C         36.35851       46.51467       82.40811
O         37.00987       46.51898       81.37235
C         34.02918       47.45906       82.54013
C         32.54165       47.20814       82.22867
C         31.73414       48.46747       82.36478
O         31.13947       48.92295       81.40036
O         31.64727       49.09170       83.55476
H         33.83059       45.37986       84.03278
H         34.66075       45.81237       81.30548
H         34.38835       48.24229       81.83519
H         34.15347       47.84194       83.57792
H         32.11655       46.44343       82.91097
H         32.45214       46.83168       81.18506
N         36.96116       46.79609       83.59907
C         38.36799       47.19337       83.68883
C         39.33352       46.09831       83.23700
O         40.49905       46.40392       83.02438
C         38.74165       47.65486       85.11611
C         37.83693       48.80032       85.60211
C         38.26062       49.33091       86.93617
O         38.48866       50.52111       87.06604
O         38.34827       48.51682       88.00423
H         36.38345       46.75419       84.45000
H         38.49966       48.06385       83.00753
H         39.79659       48.00812       85.10771
H         38.66346       46.79791       85.82121
H         36.79331       48.44944       85.71009
H         37.85426       49.62672       84.85864
N         38.93648       44.80532       83.08025
C         39.82287       43.76324       82.60899
H         40.69987       43.66727       83.28197
H         39.28344       42.79103       82.58729
H         40.16439       43.99621       81.57803
H         37.97767       44.53817       83.31447
Ca        39.24050       50.49888       90.73080
O         35.75997       48.94602       89.84211
H         34.82412       48.79271       90.12705
H         35.70819       49.02133       88.85607

Ca 1.0



