%chk=holoCaM-CaMKII.loop1.water2.frame210.chk
%nprocshared=20
%mem=10GB
%nosave
#b3lyp/svp scf=(tight,noincore,xqc) Test 
#IOP(5/87=12) Density=Current Pop=(MK,readradii) iop(6/33=2) iop(6/42=6)

holoCaM-CaMKII.loop1.water2.frame210 

   0  1 
C         26.27741       61.95461       40.60751
C         25.86488       62.51974       41.93109
O         25.43126       63.66128       41.99234
H         27.35054       61.67279       40.64496
H         25.67046       61.05039       40.38868
H         26.12428       62.69622       39.79580
N         25.96958       61.75289       43.04860
C         25.55811       62.21145       44.36779
C         26.40629       63.41384       44.77942
O         27.62372       63.30272       44.81010
C         25.68350       61.04495       45.36838
C         25.00250       61.27557       46.68283
O         24.35105       62.28487       46.90147
O         25.06878       60.31084       47.61434
H         26.33390       60.79245       42.94239
H         24.47900       62.48283       44.30731
H         26.75669       60.80881       45.53421
H         25.19269       60.14499       44.93673
N         25.81399       64.60651       45.06635
C         26.52623       65.85988       45.31900
C         26.36527       66.34884       46.75434
O         27.12906       67.21458       47.15927
C         26.02841       66.88355       44.27559
C         26.49806       68.32988       44.47498
C         26.03611       69.19172       43.28891
C         26.28005       70.69508       43.48987
N         25.38670       71.26420       44.50350
H         24.79212       64.63391       45.06176
H         27.61902       65.70354       45.18654
H         24.91487       66.90719       44.29997
H         26.34146       66.51383       43.27453
H         27.60537       68.38093       44.55660
H         26.04589       68.70258       45.41591
H         24.95213       69.04125       43.09028
H         26.59910       68.85213       42.39186
H         26.07090       71.20343       42.52285
H         27.34298       70.88569       43.75598
H         25.53324       72.29820       44.54530
H         24.38923       71.08343       44.24238
H         25.58030       70.86677       45.44884
N         25.45035       65.80793       47.59853
C         25.38726       66.09921       49.02720
C         25.70099       64.83345       49.83135
O         25.73888       64.91434       51.05109
C         24.03190       66.75625       49.38162
C         22.87873       66.05714       48.72882
O         22.69021       64.75241       48.95403
O         22.16770       66.65114       47.93576
H         24.78509       65.11290       47.23421
H         26.17256       66.82610       49.33023
H         24.04064       67.80411       49.00837
H         23.90024       66.79676       50.48542
N         26.01340       63.64945       49.21846
C         26.48051       62.46473       49.91406
C         25.50246       61.94242       50.93636
O         25.88448       61.84437       52.09352
H         26.00051       63.57604       48.19506
H         27.44882       62.70216       50.40639
H         26.68181       61.66441       49.16970
N         24.23368       61.57447       50.58919
C         23.27111       61.03848       51.55995
C         22.78635       59.63127       51.23621
O         22.10602       59.05884       52.07724
C         22.09673       62.01185       51.76434
C         21.27532       62.32530       50.54534
O         20.41788       63.19013       50.62681
O         21.54086       61.78640       49.34181
H         23.94949       61.69958       49.60804
H         23.76607       60.95026       52.55111
H         22.53099       62.97327       52.11940
H         21.42340       61.62853       52.55919
N         23.10767       58.99220       50.07687
C         22.78154       57.60294       49.80678
C         21.89999       57.40781       48.59395
O         21.78621       56.26931       48.16701
H         23.65177       59.48077       49.35951
H         22.29674       57.09932       50.67105
H         23.74464       57.08049       49.62066
N         21.20352       58.43286       48.01352
C         20.34956       58.23353       46.83897
C         20.71104       59.21473       45.73191
O         21.49850       60.12067       45.95944
C         18.85796       58.36726       47.22667
C         18.45398       57.33110       48.28249
O         18.60398       59.65468       47.71988
H         21.23946       59.37043       48.43515
H         20.50080       57.21272       46.42728
H         18.24773       58.18681       46.31087
H         17.62243       59.79493       47.65820
H         17.36950       57.42326       48.50431
H         18.65103       56.30356       47.91116
H         19.01553       57.49129       49.22752
N         20.17153       59.06122       44.48234
C         20.44431       59.96966       43.37058
C         19.10912       60.47496       42.83327
O         18.31802       59.67829       42.34991
C         21.25881       59.25262       42.25322
C         22.54124       58.59837       42.83368
C         21.61726       60.25782       41.13817
C         23.30798       57.75418       41.81265
H         19.55830       58.25264       44.30544
H         21.05690       60.82683       43.72640
H         20.62590       58.44331       41.82630
H         22.25792       57.90512       43.65390
H         23.21539       59.37592       43.25561
H         22.12787       59.76385       40.28900
H         20.70511       60.73026       40.72400
H         22.28202       61.05453       41.53716
H         22.64638       56.96313       41.39849
H         23.70679       58.37219       40.98418
H         24.17090       57.26523       42.31139
N         18.78165       61.79255       42.92572
C         17.49601       62.33897       42.49421
C         17.41820       62.43835       40.97552
O         18.37444       62.10655       40.29241
C         17.25898       63.73419       43.14205
C         17.25458       63.64421       44.67100
O         18.24835       64.63121       42.72414
H         19.45165       62.41769       43.37873
H         16.67994       61.67598       42.85776
H         16.26453       64.11785       42.82872
H         18.04523       65.51374       43.13072
H         18.25231       63.33912       45.04209
H         17.01732       64.63744       45.10443
H         16.48909       62.91890       45.01624
N         16.29265       62.92530       40.38209
C         16.16477       63.16231       38.94419
C         17.20590       64.19707       38.51411
O         17.96387       63.96301       37.58442
C         14.73012       63.67269       38.62570
C         14.45337       63.72274       37.12211
O         13.77996       62.81179       39.20639
H         15.49694       63.16833       40.98997
H         16.31150       62.20074       38.40276
H         14.61427       64.70619       39.03647
H         13.24910       63.34544       39.85605
H         14.52461       62.70016       36.69117
H         13.42300       64.10109       36.94707
H         15.16947       64.38921       36.60039
N         17.30818       65.35305       39.22788
C         18.26036       66.44289       39.00333
C         19.70007       65.95569       38.97392
O         20.40601       66.24377       38.01744
C         18.06858       67.45560       40.16093
C         19.01694       68.66579       40.18430
C         18.82557       69.49672       41.47149
C         17.44364       70.16754       41.57846
N         17.30570       70.88046       42.84813
H         16.66351       65.44832       40.02853
H         18.03576       66.94575       38.03652
H         18.21029       66.91056       41.11911
H         17.01851       67.80783       40.11519
H         18.87481       69.29568       39.28067
H         20.06626       68.29907       40.19526
H         19.60355       70.28991       41.50224
H         18.98365       68.83286       42.35099
H         16.63115       69.41466       41.52480
H         17.31857       70.87988       40.73342
H         16.37138       71.34945       42.87676
H         17.36197       70.20194       43.64301
H         18.05441       71.60314       42.94664
N         20.20631       65.24296       40.01409
C         21.60173       64.82739       40.12322
C         21.98672       63.97546       38.92789
O         22.93146       64.32776       38.23429
C         21.84930       64.12093       41.48323
C         21.60311       65.10822       42.65196
C         21.82429       64.53249       44.02061
O         21.24598       63.52401       44.38157
O         22.57498       65.20614       44.90610
H         19.55637       64.99416       40.76548
H         22.25439       65.73003       40.11517
H         22.89977       63.76741       41.52923
H         21.17778       63.23989       41.57768
H         20.56302       65.47105       42.62965
H         22.26248       65.99539       42.53528
N         21.25615       62.88469       38.57790
C         21.53372       62.12717       37.37647
H         22.54968       61.68388       37.42620
H         20.78625       61.31418       37.25884
H         21.46349       62.79349       36.48819
H         20.45038       62.61239       39.15205
Ca        21.31155       63.38914       47.81788
O         18.50197       62.58117       47.65667
H         17.86284       63.33430       47.70758
H         18.17388       62.03055       46.90332
O         19.37044       65.56121       46.47262
H         19.91536       65.95465       47.19621
H         18.45204       65.56959       46.83967

Ca 1.0



