%chk=holoCaM-CaMKII.loop3.water2.frame90.chk
%nprocshared=20
%mem=10GB
%nosave
#b3lyp/svp scf=(tight,noincore,xqc) Test 
#IOP(5/87=12) Density=Current Pop=(MK,readradii) iop(6/33=2) iop(6/42=6)

holoCaM-CaMKII.loop3.water2.frame90 

   0  1 
C         13.43328       40.00403       60.87705
C         13.93004       38.68216       60.38256
O         13.25962       37.68252       60.58311
H         12.46087       39.88756       61.40144
H         14.17402       40.43115       61.58476
H         13.30072       40.69546       60.01914
N         15.09977       38.61374       59.68977
C         15.66490       37.36746       59.18400
C         16.18662       36.54291       60.34850
O         17.30449       36.76850       60.79076
C         16.72182       37.71027       58.09927
C         17.56233       36.58857       57.54671
O         18.77216       36.72531       57.53846
O         17.03548       35.46980       57.01436
H         15.58469       39.50160       59.48589
H         14.85395       36.80911       58.68771
H         17.42465       38.46898       58.51015
H         16.18160       38.18211       57.25001
N         15.37308       35.62747       60.95944
C         15.76399       34.89887       62.16414
C         16.62732       33.68647       61.84367
O         17.09842       33.05505       62.77950
C         14.52177       34.47848       62.99169
C         13.69264       35.70041       63.43037
C         12.50728       35.31418       64.32617
C         11.59983       36.51466       64.66505
N         12.29948       37.56717       65.40570
H         14.41420       35.50251       60.60229
H         16.35439       35.58215       62.81540
H         14.86441       33.94700       63.90718
H         13.88469       33.78314       62.40115
H         13.29462       36.21011       62.53493
H         14.35589       36.39953       63.98147
H         12.88242       34.85116       65.26480
H         11.88213       34.56497       63.79310
H         10.75188       36.14440       65.28296
H         11.17582       36.94121       63.72860
H         13.03627       38.01115       64.81299
H         11.61178       38.31003       65.66827
H         12.72426       37.17696       66.27772
N         16.88354       33.29994       60.55818
C         17.74371       32.17292       60.20907
C         18.96941       32.62572       59.41903
O         19.77478       31.77630       59.06246
C         16.94088       31.06986       59.48226
C         16.30327       31.48863       58.18833
O         15.33349       32.42058       58.17470
O         16.61280       30.92921       57.14980
H         16.46953       33.83231       59.78203
H         18.14150       31.69084       61.12857
H         16.13662       30.70306       60.15554
H         17.62492       30.21431       59.28635
N         19.22290       33.94586       59.16908
C         20.44709       34.41865       58.54391
C         20.59210       34.09906       57.06779
O         21.61822       34.48034       56.52180
H         18.58017       34.66920       59.51727
H         21.31576       34.00413       59.09972
H         20.50733       35.51965       58.65603
N         19.66635       33.39166       56.35025
C         19.94269       32.97443       54.97506
C         19.92035       34.11629       53.96218
O         20.39058       33.90304       52.85273
C         19.03854       31.79926       54.54597
C         17.60404       32.16844       54.25227
N         17.04750       31.82694       53.06650
O         16.93057       32.74818       55.08995
H         18.81971       33.04281       56.81870
H         20.97178       32.54812       54.99280
H         19.05772       31.03438       55.35259
H         19.47785       31.32776       53.64012
H         17.59000       31.32398       52.34891
H         16.06170       32.04159       52.86907
N         19.36474       35.33311       54.24732
C         19.35497       36.45302       53.31433
C         17.97134       36.78796       52.77988
O         17.87986       37.71897       51.99409
H         18.91448       35.48131       55.15960
H         19.98811       36.23552       52.42596
H         19.79532       37.33890       53.82005
N         16.87139       36.03315       53.08056
C         15.57919       36.19229       52.41307
C         14.41981       36.28479       53.39570
O         14.34662       35.48767       54.31639
C         15.33819       34.96574       51.52301
C         16.29280       34.90415       50.35794
C         17.52289       34.23332       50.45808
C         15.93893       35.51195       49.14299
C         18.37929       34.16467       49.35382
C         16.79543       35.44464       48.04246
C         18.01510       34.76835       48.14030
O         18.82393       34.70348       47.06367
H         16.97078       35.23237       53.71915
H         15.55843       37.08052       51.74300
H         14.30302       35.00359       51.11645
H         15.40202       34.03905       52.12172
H         17.81747       33.76103       51.38479
H         14.99557       36.03553       49.04790
H         19.32215       33.63939       49.44061
H         16.50627       35.91475       47.11109
H         19.67070       34.23572       47.08257
N         13.39819       37.16071       53.15371
C         12.16310       37.23362       53.93479
C         10.98103       36.82537       53.06743
O         10.77055       37.41607       52.01842
C         11.95079       38.68436       54.46921
C         13.01093       39.07763       55.52552
C         10.52640       38.91603       55.02732
C         12.91803       38.29840       56.84203
H         13.46926       37.77893       52.33150
H         12.18971       36.54001       54.79773
H         12.06194       39.38315       53.60969
H         12.88305       40.15521       55.76759
H         14.02909       38.94765       55.10070
H          9.76226       38.78923       54.23197
H         10.28378       38.20483       55.84177
H         10.42414       39.95590       55.40304
H         11.93809       38.44713       57.34071
H         13.09214       37.21589       56.69443
H         13.69274       38.68263       57.52623
N         10.10300       35.88420       53.52932
C          8.82929       35.57257       52.88377
C          7.68662       36.03576       53.78037
O          7.94843       36.52196       54.86982
C          8.74169       34.06690       52.59117
O          8.78974       33.31612       53.77735
H         10.29623       35.43150       54.43507
H          8.73684       36.12210       51.92250
H          9.56085       33.76484       51.89783
H          7.79077       33.83186       52.06850
H          9.74091       33.08001       53.93570
N          6.38448       35.95887       53.36999
C          5.28887       36.46683       54.19814
C          5.10729       35.68125       55.48702
O          4.45810       36.19012       56.39166
C          3.96861       36.46866       53.42503
H          6.17971       35.58740       52.43089
H          5.53297       37.52202       54.45719
H          4.07079       37.07690       52.50200
H          3.68403       35.43138       53.14603
H          3.15887       36.90948       54.04608
N          5.62292       34.42925       55.64061
C          5.52269       33.67918       56.88606
C          6.29363       34.39949       57.96730
O          5.75924       34.66346       59.03451
C          6.11195       32.27195       56.70462
H          6.11393       33.99099       54.84678
H          4.45612       33.55675       57.17935
H          7.18014       32.31541       56.39981
H          6.03866       31.70037       57.65486
H          5.54688       31.72388       55.92168
N          7.58418       34.74653       57.72412
C          8.46056       35.39119       58.68908
C          7.89962       36.74017       59.09335
O          7.66933       36.95500       60.27569
C          9.88069       35.52985       58.09852
C         10.47352       34.15070       57.73867
C         11.84566       34.29383       57.17977
O         12.09384       33.94024       56.03848
O         12.81863       34.79530       57.94920
H          7.95322       34.53201       56.78766
H          8.54306       34.74680       59.59363
H         10.53696       36.02551       58.84844
H          9.85285       36.16429       57.18534
H          9.85620       33.63045       56.97993
H         10.52103       33.50654       58.64229
N          7.62475       37.69052       58.15901
C          7.05211       38.97211       58.50764
H          6.07479       38.82471       59.01582
H          7.74044       39.52704       59.17911
H          6.88388       39.57378       57.58906
H          7.80637       37.49416       57.16590
Ca        14.85939       35.03212       57.09342
O         13.46098       31.30892       56.09139
H         13.54215       30.63077       56.80784
H         13.32497       30.78203       55.26470
O         13.41734       32.80388       53.38781
H         13.55029       32.49229       52.45776
H         12.48802       33.14337       53.40482

Ca 1.0



