%chk=holoCaM.loop1.water2.frame203.chk
%nprocshared=20
%mem=10GB
%nosave
#b3lyp/svp scf=(tight,noincore,xqc) Test 
#IOP(5/87=12) Density=Current Pop=(MK,readradii) iop(6/33=2) iop(6/42=6)

holoCaM.loop1.water2.frame203 

   0  1 
C         33.64014       57.60101      105.78407
C         33.61015       56.82793      107.06474
O         32.98125       57.26672      108.01767
H         34.68877       57.84805      105.52082
H         33.19422       56.98296      104.97546
H         33.05405       58.53944      105.87839
N         34.24997       55.63035      107.14506
C         34.17292       54.78722      108.32756
C         34.84500       55.43157      109.53394
O         35.79458       56.18269      109.36122
C         34.73726       53.39072      108.01936
C         34.36512       52.43552      109.09957
O         33.07691       52.37555      109.47906
O         35.20546       51.74146      109.64359
H         34.74307       55.28083      106.30788
H         33.08658       54.66209      108.54215
H         35.83522       53.41284      107.84033
H         34.24213       53.01593      107.09702
N         34.35787       55.20599      110.78974
C         34.83652       55.88721      111.98982
C         35.44128       54.94083      113.02217
O         36.39015       55.36109      113.67032
C         33.68152       56.68060      112.63987
C         33.19546       57.83613      111.74335
C         32.00466       58.61987      112.32879
C         32.31253       59.30196      113.67255
N         31.17574       60.10643      114.12185
H         33.56229       54.56285      110.89312
H         35.62881       56.62866      111.73915
H         34.05328       57.11581      113.59160
H         32.83905       55.99223      112.87169
H         32.87755       57.42965      110.76120
H         34.03824       58.53855      111.56158
H         31.13294       57.94242      112.45444
H         31.72741       59.40456      111.59085
H         33.20240       59.96020      113.56204
H         32.53204       58.53534      114.44598
H         30.98035       60.86884      113.43289
H         30.32707       59.50497      114.23230
H         31.40573       60.53914      115.04571
N         34.95584       53.68458      113.26657
C         35.47077       52.83477      114.34917
C         36.34177       51.67351      113.86196
O         36.77800       50.88444      114.68867
C         34.32043       52.39875      115.28606
C         33.29491       51.47107      114.69225
O         33.38171       51.07350      113.54243
O         32.26852       51.05763      115.45953
H         34.19207       53.32059      112.68045
H         36.15171       53.42645      114.99931
H         33.79874       53.31295      115.64627
H         34.75596       51.89010      116.17329
N         36.74459       51.58140      112.56368
C         37.75413       50.64162      112.09026
C         37.30785       49.19667      112.02742
O         37.99425       48.33112      112.55059
H         36.42055       52.28773      111.88869
H         38.68131       50.74696      112.69606
H         38.01189       50.92328      111.04657
N         36.18772       48.86929      111.33303
C         35.75957       47.50031      111.01893
C         35.37666       47.35239      109.53019
O         34.96712       46.26536      109.14657
C         34.62273       47.02444      111.97163
C         33.40353       47.89319      111.95768
O         32.42942       47.63906      112.64656
O         33.44703       48.99949      111.22097
H         35.62846       49.65816      110.98937
H         36.59702       46.79151      111.20287
H         35.01480       47.00868      113.01126
H         34.33435       45.98684      111.69719
N         35.53166       48.36820      108.62179
C         35.28535       48.22465      107.19241
C         33.82966       48.21550      106.75527
O         33.61814       48.11869      105.55571
H         35.95263       49.25965      108.91163
H         35.80645       47.31700      106.81867
H         35.73968       49.09912      106.67465
N         32.78215       48.35229      107.62171
C         31.38514       48.43195      107.17184
C         30.79197       49.78792      107.53299
O         31.46268       50.58377      108.16254
C         30.56503       47.25358      107.74320
C         31.03698       45.92195      107.14906
O         30.68537       47.21762      109.13990
H         32.96932       48.43624      108.62977
H         31.32299       48.37699      106.06305
H         29.49669       47.39067      107.45674
H         29.95827       46.63172      109.47746
H         30.92170       45.93709      106.04371
H         32.10080       45.72915      107.40061
H         30.41896       45.09038      107.54895
N         29.55203       50.14467      107.08148
C         28.97271       51.47517      107.26897
C         27.63070       51.35945      107.98310
O         26.76879       50.62212      107.52921
C         28.84037       52.17849      105.88300
C         30.21308       52.31185      105.15862
C         28.16086       53.55824      105.99116
C         31.25267       53.19858      105.86384
H         29.01895       49.46912      106.51519
H         29.63029       52.11533      107.88400
H         28.19199       51.54653      105.23603
H         30.04131       52.73485      104.14496
H         30.65395       51.30208      105.01771
H         27.13353       53.46073      106.39561
H         28.72968       54.24058      106.65319
H         28.07806       54.02472      104.98612
H         31.51249       52.81264      106.86778
H         32.18602       53.21706      105.26267
H         30.89613       54.24402      105.96046
N         27.37570       52.13332      109.08048
C         26.09992       52.15682      109.79519
C         25.30792       53.39682      109.40434
O         25.78546       54.19283      108.61103
C         26.33665       52.14674      111.33647
C         27.09388       50.90967      111.82284
O         26.98038       53.32574      111.76330
H         28.09548       52.80106      109.37551
H         25.48419       51.27489      109.51436
H         25.35442       52.11456      111.85171
H         27.95320       53.24190      111.58813
H         26.54583       49.98522      111.54685
H         28.10644       50.88966      111.37810
H         27.19622       50.94821      112.92914
N         24.07900       53.62907      109.95173
C         23.30464       54.84715      109.70886
C         24.10179       56.07025      110.11668
O         24.07667       57.06375      109.40362
C         21.97155       54.84599      110.49937
C         21.01753       53.74286      110.03501
O         22.22285       54.70915      111.87626
H         23.70025       52.92966      110.60505
H         23.05340       54.92880      108.62700
H         21.47109       55.82457      110.29723
H         21.49651       55.18683      112.35564
H         21.44553       52.73492      110.20927
H         20.06285       53.81983      110.59757
H         20.79590       53.86129      108.95317
N         24.84478       56.05269      111.25761
C         25.63609       57.18459      111.72110
C         26.66739       57.56215      110.66843
O         26.70307       58.70042      110.22414
C         26.38138       56.85623      113.04970
C         25.52822       56.26766      114.19190
C         24.33503       57.13340      114.60226
C         23.55570       56.44549      115.73397
N         22.39904       57.24071      116.13911
H         24.85181       55.18171      111.80273
H         24.95553       58.04403      111.90854
H         26.87624       57.78604      113.40689
H         27.18025       56.10698      112.86210
H         26.19377       56.12402      115.07156
H         25.15913       55.26033      113.91109
H         23.65441       57.26720      113.73452
H         24.69598       58.12866      114.94010
H         24.22392       56.29499      116.61129
H         23.20527       55.44638      115.38792
H         22.71202       58.17304      116.49409
H         21.74950       57.36728      115.32919
H         21.89222       56.73824      116.90352
N         27.55268       56.62077      110.24251
C         28.64814       56.86737      109.30645
C         28.17263       57.11055      107.87788
O         29.00746       57.43359      107.04367
C         29.57120       55.63318      109.29895
C         30.18733       55.35659      110.68808
C         30.78793       53.98927      110.79247
O         31.37905       53.60916      111.94045
O         30.69047       53.19366      109.87512
H         27.45603       55.67876      110.64710
H         29.22872       57.74901      109.65856
H         30.39720       55.73772      108.56001
H         28.94176       54.77930      108.98388
H         29.43163       55.40228      111.49525
H         30.95222       56.12711      110.89454
N         26.87395       56.92665      107.50486
C         26.39478       57.08699      106.14723
H         25.58343       57.84373      106.13096
H         27.19406       57.40744      105.44734
H         25.98626       56.11766      105.78938
H         26.18213       56.62530      108.19672
Ca        32.25704       50.77227      110.78190
O         30.16479       51.03797      113.27594
H         30.06831       51.79461      113.90685
H         29.74475       50.27126      113.74078
O         29.84039       49.09639      110.97400
H         29.13919       49.04807      110.27603
H         29.51410       48.50613      111.69829

Ca 1.0



