%chk=holoCaM-CaMKII.loop4.water2.frame131.chk
%nprocshared=20
%mem=10GB
%nosave
#b3lyp/svp scf=(tight,noincore,xqc) Test 
#IOP(5/87=12) Density=Current Pop=(MK,readradii) iop(6/33=2) iop(6/42=6)

holoCaM-CaMKII.loop4.water2.frame131 

   -3  1 
C         48.90068       26.45133       69.60744
C         50.08027       25.72628       70.18622
O         51.16844       26.27715       70.22235
H         48.10424       26.54699       70.37500
H         49.18812       27.46472       69.25607
H         48.50293       25.87572       68.74408
N         49.92260       24.46485       70.66500
C         51.00847       23.65559       71.21068
C         52.04759       23.34935       70.14134
O         51.68156       22.77989       69.12219
C         50.41429       22.34240       71.76147
C         51.47355       21.39710       72.23060
O         51.54142       20.27339       71.76170
O         52.36461       21.79006       73.15141
H         48.97110       24.06403       70.63714
H         51.48480       24.19695       72.05965
H         49.81214       21.83611       70.97460
H         49.73997       22.58415       72.61151
N         53.36776       23.67099       70.32384
C         54.40222       23.37331       69.33070
C         55.46953       22.38936       69.83890
O         56.32698       22.04001       69.03974
C         55.01303       24.68658       68.73928
C         55.88678       25.47577       69.74887
C         53.88895       25.56504       68.15578
C         56.54540       26.71873       69.13408
H         53.64549       24.15025       71.19073
H         53.93679       22.85257       68.46585
H         55.66979       24.38626       67.89234
H         56.70427       24.81264       70.10390
H         55.28626       25.79417       70.62508
H         53.25764       24.97873       67.45557
H         53.25242       25.96170       68.96893
H         54.29357       26.42310       67.58339
H         55.78911       27.47796       68.84631
H         57.21912       27.19426       69.87692
H         57.14356       26.44207       68.23935
N         55.47476       21.86615       71.10870
C         56.44449       20.85344       71.56244
C         55.76941       19.53275       71.95199
O         56.43937       18.66897       72.50143
C         57.36193       21.40750       72.67948
C         56.69277       21.70085       73.98695
O         55.38600       21.45918       74.15692
O         57.31704       22.27456       74.86533
H         54.75431       22.16908       71.77723
H         57.14901       20.60058       70.74147
H         57.81912       22.34786       72.29728
H         58.18638       20.69007       72.88040
N         54.47744       19.26516       71.59979
C         53.84824       17.96013       71.76192
C         53.31038       17.63576       73.14394
O         52.72614       16.56831       73.27224
H         53.96302       19.95883       71.04080
H         54.54772       17.16473       71.42233
H         52.96793       17.92414       71.08475
N         53.43485       18.46639       74.21819
C         52.86772       18.12988       75.52516
C         51.33997       18.05058       75.49406
O         50.79983       17.06667       75.97921
C         53.41146       19.02842       76.66684
C         53.22335       20.51728       76.59193
O         52.67831       21.05297       75.64858
O         53.70891       21.28103       77.58668
H         53.95936       19.34406       74.11323
H         53.23920       17.12058       75.81782
H         54.50786       18.85918       76.72946
H         52.96055       18.67840       77.62129
N         50.58532       19.02460       74.91144
C         49.12824       19.01227       74.85488
C         48.51821       20.26719       75.45128
O         47.30944       20.42744       75.33996
H         51.05868       19.80460       74.44382
H         48.69493       18.12585       75.36671
H         48.83317       18.96620       73.78476
N         49.27566       21.20072       76.09537
C         48.76209       22.45342       76.63030
C         49.46688       23.63474       75.99187
O         50.36696       23.45590       75.17795
C         48.93488       22.46022       78.16466
C         47.86540       21.57827       78.82534
C         48.03216       21.52264       80.31876
N         49.09273       20.88790       80.86775
O         47.19017       22.03430       81.04190
H         50.28026       21.03063       76.22862
H         47.68405       22.58722       76.38626
H         48.79263       23.48261       78.57444
H         49.96831       22.13645       78.42291
H         47.88375       20.54328       78.42458
H         46.87404       22.02667       78.58686
H         49.79472       20.42636       80.27117
H         49.19777       20.83508       81.89165
N         49.04960       24.89338       76.29537
C         49.57412       26.10793       75.69362
C         50.16040       26.98129       76.78946
O         49.49628       27.22967       77.78837
C         48.44177       26.83134       74.91382
C         48.94963       28.12104       74.24724
C         47.86150       25.91111       73.82446
H         48.27500       25.00497       76.96978
H         50.36870       25.87204       74.95235
H         47.62387       27.09914       75.61887
H         49.32695       28.83494       75.00554
H         49.76290       27.89450       73.52534
H         48.12357       28.62277       73.69979
H         47.43315       24.98919       74.27007
H         47.04595       26.42868       73.27618
H         48.64984       25.61957       73.09660
N         51.39510       27.52561       76.63073
C         52.05736       28.39980       77.58728
C         51.96346       29.81711       77.04143
O         51.47026       29.97927       75.93428
C         53.51142       27.86725       77.74223
C         54.36715       28.45034       78.84314
N         54.82409       27.65794       79.84333
O         54.70009       29.62311       78.81387
H         51.87036       27.38936       75.73347
H         51.52703       28.36208       78.56386
H         54.05005       27.98138       76.77559
H         53.43202       26.77771       77.93565
H         54.58796       26.65512       79.87952
H         55.42930       28.04388       80.58290
N         52.34817       30.90784       77.75282
C         52.26830       32.25246       77.19073
C         53.17446       32.37638       75.96981
O         52.72462       32.86968       74.94540
C         52.64747       33.31509       78.23798
C         52.38356       34.70705       77.70646
C         51.06875       35.11633       77.41137
C         53.44171       35.60360       77.49300
C         50.82059       36.39577       76.90824
C         53.19098       36.88296       76.98563
C         51.87867       37.28271       76.69136
O         51.62312       38.51236       76.20108
H         52.67516       30.78748       78.72129
H         51.21208       32.44146       76.89395
H         53.71604       33.18217       78.51568
H         52.03771       33.17883       79.15778
H         50.23252       34.44698       77.57170
H         54.46086       35.30983       77.70898
H         49.80410       36.69686       76.68540
H         54.01752       37.56157       76.81961
H         52.32598       39.15615       76.03394
N         54.45916       31.90785       76.00961
C         55.40764       31.99812       74.89252
C         54.94922       31.31936       73.59985
O         55.63484       31.46799       72.59729
C         56.78108       31.40987       75.30378
C         56.73191       29.88569       75.54649
C         58.07667       29.35332       75.94237
O         58.63049       28.51067       75.25395
O         58.67121       29.78817       77.06940
H         54.78136       31.48969       76.89389
H         55.54123       33.08007       74.67214
H         57.13291       31.92790       76.22259
H         57.51905       31.61436       74.49644
H         56.40620       29.37153       74.61721
H         56.00938       29.63821       76.34981
N         53.81514       30.57116       73.53942
C         53.31926       29.92539       72.33383
C         52.13089       30.71512       71.83338
O         52.13113       31.11656       70.67853
C         52.94246       28.46054       72.62934
C         54.11423       27.71331       73.26888
C         53.79577       26.28701       73.55807
O         54.64887       25.34054       73.17868
O         52.83127       25.97193       74.22826
H         53.25562       30.44621       74.38534
H         54.09650       29.91705       71.53595
H         52.63912       27.96189       71.68369
H         52.08712       28.42775       73.33787
H         54.35546       28.18709       74.24187
H         55.01395       27.76090       72.61670
N         51.11459       31.04287       72.68127
C         49.99718       31.88418       72.31640
H         49.05052       31.34850       72.53151
H         50.03148       32.81061       72.93026
H         50.01719       32.17282       71.24587
H         51.14830       30.72757       73.65698
Ca        54.38939       23.40647       74.22589
O         52.62106       24.10166       77.66103
H         52.11411       24.79921       78.14653
H         53.26737       23.76054       78.32892
O         55.57355       25.33307       76.39542
H         56.08080       24.50426       76.20584
H         55.95239       25.66524       77.24745

Ca 1.0



