%chk=holoCaM.loop1.water2.frame288.chk
%nprocshared=20
%mem=10GB
%nosave
#b3lyp/svp scf=(tight,noincore,xqc) Test 
#IOP(5/87=12) Density=Current Pop=(MK,readradii) iop(6/33=2) iop(6/42=6)

holoCaM.loop1.water2.frame288 

   0  1 
C         11.32145       52.31789       50.08642
C         12.01480       51.64810       48.94089
O         11.99303       52.17290       47.83694
H         10.53230       51.64240       50.47953
H         12.05301       52.53388       50.89245
H         10.84868       53.26807       49.75972
N         12.65771       50.46529       49.14141
C         13.32187       49.72689       48.07396
C         12.28266       49.31491       47.02987
O         11.44839       48.46485       47.30768
C         14.06865       48.53311       48.70053
C         14.70982       47.62527       47.71025
O         15.55656       48.03169       46.93547
O         14.36482       46.33059       47.70778
H         12.66982       50.08287       50.10069
H         14.08070       50.39557       47.60707
H         13.35451       47.92970       49.30303
H         14.85344       48.92144       49.38755
N         12.20956       49.99723       45.84894
C         11.08198       49.89395       44.91991
C         11.11455       48.68607       43.98962
O         10.09564       48.43962       43.35949
C         10.93110       51.22022       44.12686
C         12.08390       51.49754       43.13844
C         12.07915       52.96203       42.66904
C         13.29621       53.31937       41.79465
N         13.26016       52.65835       40.49077
H         12.85830       50.78466       45.74159
H         10.16404       49.81277       45.54506
H         10.89211       52.03508       44.88441
H          9.97082       51.23959       43.56715
H         12.02133       50.78749       42.28780
H         13.04853       51.33807       43.63584
H         12.13832       53.60600       43.57474
H         11.13622       53.20440       42.13493
H         14.23928       53.05802       42.32550
H         13.29847       54.42030       41.63305
H         12.39039       52.93284       39.97901
H         14.08888       52.96809       39.93309
H         13.30267       51.62054       40.59623
N         12.22867       47.91381       43.81265
C         12.26140       46.74750       42.91583
C         12.64909       45.46202       43.64411
O         12.70179       44.42215       43.00214
C         13.17652       47.02755       41.70119
C         14.62510       47.21153       42.04181
O         15.05934       47.00950       43.29556
O         15.40035       47.62007       41.19213
H         13.09152       48.18117       44.30687
H         11.25122       46.56985       42.48801
H         12.80768       47.96317       41.22421
H         13.09416       46.21044       40.95260
N         12.89084       45.44259       44.98617
C         13.16095       44.22837       45.73303
C         14.50350       43.59974       45.43594
O         14.52667       42.41911       45.11880
H         12.80725       46.30798       45.53631
H         12.33606       43.50165       45.56787
H         13.15235       44.46469       46.81466
N         15.66861       44.29993       45.59056
C         16.98868       43.66897       45.52638
C         17.76796       43.79516       46.84172
O         18.79688       43.14266       46.95195
C         17.80059       44.16557       44.31178
C         17.97272       45.65444       44.24042
O         18.55305       46.32316       45.24504
O         17.61973       46.26233       43.24429
H         15.61587       45.30763       45.79513
H         16.86924       42.57325       45.38133
H         17.28827       43.82951       43.38425
H         18.80571       43.69134       44.33070
N         17.35113       44.57813       47.88295
C         18.00586       44.61042       49.18381
C         18.68146       45.92955       49.49171
O         19.16082       46.06714       50.60919
H         16.52091       45.16924       47.78426
H         18.78471       43.82234       49.27291
H         17.23588       44.39810       49.95689
N         18.84595       46.90543       48.54920
C         19.63062       48.11513       48.78721
C         18.88327       49.37545       48.37784
O         17.79742       49.30300       47.82208
C         20.98048       48.02412       48.02716
C         21.84473       46.85029       48.51890
O         20.77659       47.95610       46.63753
H         18.48560       46.74917       47.60187
H         19.86272       48.21386       49.87082
H         21.57576       48.93926       48.22737
H         20.59923       47.01119       46.39662
H         22.05303       46.95748       49.60419
H         21.33660       45.87759       48.34627
H         22.81016       46.84263       47.97038
N         19.43769       50.58720       48.65488
C         18.85649       51.88053       48.32226
C         19.85075       52.66207       47.46335
O         21.00970       52.79470       47.83059
C         18.44317       52.59671       49.64766
C         17.15050       51.90477       50.18046
C         18.20922       54.10441       49.45495
C         16.60551       52.45811       51.49621
H         20.33094       50.60391       49.17106
H         17.92608       51.77016       47.72520
H         19.27087       52.50259       50.38449
H         17.34726       50.82233       50.33068
H         16.34102       52.00052       49.41986
H         17.98003       54.59596       50.42072
H         19.12457       54.60089       49.07302
H         17.37550       54.28598       48.76124
H         17.36252       52.35878       52.29992
H         16.29627       53.51837       51.39458
H         15.69848       51.88213       51.78120
N         19.41238       53.26411       46.32100
C         20.20376       54.09793       45.42842
C         19.82445       55.54729       45.68069
O         19.07894       55.81270       46.61081
C         19.91988       53.71678       43.94081
C         20.23926       52.25043       43.62006
O         18.59843       54.04760       43.57615
H         18.41498       53.22685       46.11456
H         21.29056       53.98091       45.63005
H         20.58539       54.30844       43.27998
H         18.01231       53.26989       43.74967
H         21.30551       52.03065       43.83195
H         19.59945       51.57640       44.22228
H         20.04149       52.05370       42.54331
N         20.28087       56.54594       44.88203
C         19.86870       57.93620       45.04877
C         18.34905       58.07415       44.92814
O         17.72930       58.62239       45.82861
C         20.58526       58.85216       44.01992
C         22.10460       58.87124       44.24120
O         20.30871       58.43199       42.70815
H         20.91941       56.30428       44.11199
H         20.16817       58.28866       46.06206
H         20.20207       59.88821       44.17354
H         20.50998       59.19730       42.10911
H         22.33845       59.21940       45.26917
H         22.55279       57.86694       44.09361
H         22.57978       59.56726       43.51840
N         17.69100       57.60678       43.82934
C         16.25747       57.80341       43.57624
C         15.33828       56.98515       44.48682
O         14.12953       57.11650       44.35189
C         15.95771       57.50717       42.08874
C         16.72821       58.49460       41.18845
C         16.57297       58.17791       39.70034
C         17.34015       59.17320       38.80654
N         18.78445       59.17182       39.06398
H         18.25687       57.13726       43.10796
H         16.01191       58.87667       43.74065
H         14.87130       57.62572       41.88027
H         16.24696       56.45742       41.86001
H         17.80381       58.44510       41.43081
H         16.37142       59.52870       41.39127
H         15.49577       58.21870       39.42930
H         16.94602       57.14917       39.50323
H         16.93991       60.20100       38.95237
H         17.16520       58.88411       37.74733
H         19.25842       59.76958       38.34951
H         18.99752       59.58042       40.00152
H         19.16722       58.20066       39.00009
N         15.82262       56.16906       45.46250
C         14.99068       55.43922       46.41550
C         15.04090       56.14955       47.75925
O         13.98947       56.35260       48.35005
C         15.45770       53.97120       46.51166
C         15.30447       53.25687       45.16471
C         15.83615       51.84992       45.15965
O         17.00889       51.60350       45.35970
O         15.02934       50.85295       44.81113
H         16.83693       56.08670       45.57942
H         13.92260       55.42302       46.10017
H         14.86398       53.42784       47.28051
H         16.51421       53.95769       46.81211
H         15.84306       53.81872       44.37625
H         14.22626       53.23926       44.89767
N         16.21274       56.63474       48.26206
C         16.31199       57.39967       49.48777
H         16.67849       58.42143       49.24841
H         15.33905       57.49091       50.01237
H         17.04083       56.91443       50.16800
H         17.08308       56.50522       47.73775
Ca        15.80977       48.84920       44.25978
O         19.20029       48.91840       43.91751
H         19.50554       49.29030       44.78248
H         19.98322       49.00661       43.31801
O         17.28729       50.76615       42.22113
H         16.99190       50.10442       41.54658
H         16.78341       51.58934       42.00042

Ca 1.0



