%chk=holoCaM-CaMKII.loop1.water2.frame445.chk
%nprocshared=20
%mem=10GB
%nosave
#b3lyp/svp scf=(tight,noincore,xqc) Test 
#IOP(5/87=12) Density=Current Pop=(MK,readradii) iop(6/33=2) iop(6/42=6)

holoCaM-CaMKII.loop1.water2.frame445 

   0  1 
C         71.08841       65.76936       18.74527
C         72.07819       64.94527       17.98204
O         72.82706       64.20480       18.60108
H         70.41809       65.08882       19.31302
H         71.62172       66.43462       19.45404
H         70.46557       66.38735       18.06525
N         72.11151       64.98133       16.62269
C         72.97818       64.10229       15.85512
C         74.44200       64.51396       16.00492
O         74.74758       65.65509       15.68591
C         72.55679       64.10966       14.37307
C         73.15439       62.94691       13.65140
O         73.84687       62.02035       14.33447
O         72.99045       62.82385       12.45168
H         71.43875       65.58580       16.12507
H         72.80288       63.07879       16.23901
H         72.86429       65.06696       13.89608
H         71.45475       64.00639       14.27949
N         75.40002       63.64769       16.46667
C         76.77244       64.06479       16.77740
C         77.82262       63.62365       15.75488
O         78.95285       64.07304       15.89403
C         77.17463       63.55694       18.18572
C         76.33311       64.00134       19.41004
C         76.40121       65.50882       19.73116
C         75.36978       66.34762       18.96528
N         75.62148       67.77735       19.11290
H         75.13904       62.66734       16.64611
H         76.85492       65.16716       16.74389
H         78.22606       63.85770       18.38944
H         77.15353       62.44386       18.15980
H         76.80970       63.48121       20.27095
H         75.28362       63.64108       19.36521
H         77.43977       65.86136       19.55390
H         76.17190       65.66199       20.80894
H         74.35259       66.10219       19.33720
H         75.39209       66.12437       17.90289
H         74.88646       68.30393       18.58643
H         75.59616       68.05516       20.11915
H         76.55390       68.00884       18.69755
N         77.55806       62.78670       14.70990
C         78.55381       62.44943       13.68131
C         78.07172       62.78988       12.26631
O         78.82021       62.54907       11.32905
C         79.05127       60.99293       13.85439
C         77.96323       59.96967       13.91714
O         77.73660       59.39369       14.96941
O         77.16751       59.74480       12.86508
H         76.62342       62.36499       14.64033
H         79.47389       63.06227       13.81275
H         79.59540       60.95755       14.82397
H         79.77852       60.72538       13.05773
N         76.89125       63.43995       12.03591
C         76.48576       63.93163       10.72608
C         76.13123       62.84060        9.74274
O         76.71671       62.79522        8.67014
H         76.28246       63.69420       12.82573
H         77.28447       64.58977       10.31538
H         75.57498       64.55693       10.84846
N         75.13530       61.95611       10.03073
C         74.63869       60.94385        9.10038
C         73.12667       61.07773        8.85072
O         72.57389       60.21943        8.17745
C         75.03467       59.53335        9.59711
C         74.39723       59.07443       10.87542
O         73.57796       59.76146       11.45271
O         74.73262       57.87841       11.39190
H         74.70688       62.00861       10.96179
H         75.13939       61.05011        8.11279
H         76.13808       59.51718        9.73273
H         74.77597       58.78800        8.81538
N         72.40221       62.14584        9.30986
C         70.98137       62.33674        9.02734
C         70.03532       61.50980        9.88248
O         68.83369       61.64215        9.68277
H         72.88363       62.91698        9.79159
H         70.79168       62.15992        7.94624
H         70.72258       63.39705        9.23721
N         70.47065       60.66971       10.86154
C         69.58811       59.90250       11.73833
C         69.83687       60.22237       13.20751
O         70.84137       60.84100       13.54459
C         69.77908       58.37763       11.49094
C         69.16941       57.95735       10.15593
O         71.13821       58.02084       11.47932
H         71.47807       60.57506       11.00513
H         68.52399       60.16584       11.54676
H         69.25218       57.78793       12.27417
H         71.56164       58.43414       12.27105
H         69.64268       58.50126        9.31228
H         69.31797       56.86585       10.00633
H         68.07738       58.16056       10.16018
N         68.92044       59.83653       14.13909
C         69.04931       60.03704       15.57958
C         68.86727       58.68858       16.25911
O         67.86533       58.02797       16.00371
C         67.99927       61.06599       16.10201
C         68.16062       62.42442       15.36816
C         68.15775       61.25670       17.62928
C         67.11218       63.46908       15.76328
H         68.05453       59.38204       13.80215
H         70.04875       60.45490       15.83023
H         66.97906       60.67202       15.89655
H         68.05003       62.26012       14.27564
H         69.17484       62.84247       15.55530
H         68.02467       60.29765       18.16458
H         69.16406       61.66257       17.87265
H         67.38849       61.93803       18.04179
H         67.25649       64.38552       15.15355
H         66.08957       63.07705       15.57869
H         67.20713       63.76595       16.82710
N         69.76165       58.23980       17.17968
C         69.62494       56.96756       17.88605
C         69.05620       57.19918       19.27409
O         68.79789       58.33904       19.62336
C         71.00198       56.25941       17.96619
C         71.61032       56.05500       16.58056
O         71.88289       57.02934       18.74298
H         70.54339       58.85865       17.44022
H         68.90839       56.30375       17.35192
H         70.85873       55.26363       18.44336
H         72.63068       56.43469       19.01240
H         70.93172       55.45617       15.93858
H         71.79572       57.04206       16.10996
H         72.58317       55.52626       16.66846
N         68.81644       56.16771       20.12651
C         68.34986       56.36711       21.49946
C         69.38812       57.15343       22.29406
O         69.03915       58.13506       22.93178
C         68.04557       55.02048       22.20275
C         66.88577       54.27657       21.52710
O         69.18766       54.20304       22.22279
H         68.99689       55.20771       19.79315
H         67.39329       56.93981       21.49378
H         67.73079       55.25941       23.24708
H         69.07707       53.57229       22.98155
H         67.13279       54.00504       20.48018
H         66.66182       53.34357       22.08620
H         65.97194       54.90871       21.52742
N         70.70021       56.78349       22.24895
C         71.78974       57.45816       22.95649
C         71.81372       58.94949       22.65618
O         71.76754       59.74629       23.58354
C         73.12675       56.80022       22.52490
C         74.39875       57.40857       23.13342
C         74.50376       57.18799       24.64846
C         75.84331       57.68420       25.22035
N         75.98451       59.13922       25.13540
H         70.94097       55.98134       21.64743
H         71.64757       57.31805       24.04988
H         73.22062       56.89339       21.42125
H         73.09673       55.71388       22.76240
H         74.44728       58.48629       22.87662
H         75.26609       56.90458       22.65292
H         74.44091       56.09452       24.84149
H         73.66662       57.68617       25.18092
H         76.68704       57.19042       24.68776
H         75.89603       57.38482       26.29003
H         75.99814       59.46011       24.14203
H         75.20273       59.60475       25.65102
H         76.89067       59.41647       25.57699
N         71.87943       59.38976       21.37296
C         71.91500       60.79780       20.98288
C         70.70940       61.54103       21.53170
O         70.88674       62.55755       22.18841
C         71.97045       60.90472       19.44393
C         73.32226       60.39303       18.89764
C         73.40545       60.37965       17.39716
O         74.55595       60.00770       16.80598
O         72.44792       60.68209       16.70523
H         71.88075       58.67402       20.63392
H         72.82944       61.28575       21.39010
H         71.85439       61.96254       19.13401
H         71.12266       60.33310       19.01594
H         73.52332       59.35810       19.24151
H         74.12816       61.05245       19.28749
N         69.45299       61.06849       21.33424
C         68.27631       61.71791       21.86472
H         67.37468       61.11353       21.62500
H         68.35586       61.80588       22.96933
H         68.16394       62.72484       21.41273
H         69.33094       60.19803       20.81639
Ca        75.22020       60.66540       13.29095
O         72.95416       57.05534       13.81376
H         73.41330       56.22516       14.09216
H         71.99709       56.80288       13.78257
O         75.20463       57.38464       15.78949
H         75.79346       56.72324       16.23124
H         75.65850       57.59290       14.93439

Ca 1.0



