%chk=holoCaM-CaMKII.loop3.water2.frame150.chk
%nprocshared=20
%mem=10GB
%nosave
#b3lyp/svp scf=(tight,noincore,xqc) Test 
#IOP(5/87=12) Density=Current Pop=(MK,readradii) iop(6/33=2) iop(6/42=6)

holoCaM-CaMKII.loop3.water2.frame150 

   0  1 
C          4.09468        3.33742       64.50899
C          4.59170        3.10530       65.90433
O          4.11005        3.74621       66.82587
H          3.30078        4.11448       64.49452
H          4.93528        3.67317       63.86556
H          3.67849        2.39218       64.10167
N          5.58586        2.20306       66.12553
C          6.14598        1.91343       67.43828
C          7.55609        2.45867       67.47429
O          8.51958        1.72047       67.62840
C          6.03906        0.39817       67.70477
C          6.66055       -0.01021       69.01064
O          7.57582       -0.81698       69.01844
O          6.22343        0.50828       70.17215
H          5.99301        1.71501       65.31227
H          5.59139        2.44490       68.23793
H          6.53706       -0.15563       66.87928
H          4.96687        0.10865       67.71703
N          7.72788        3.79911       67.32671
C          9.03008        4.44708       67.33579
C          9.66980        4.28462       68.69873
O         10.78845        3.79675       68.77506
C          8.91739        5.94130       66.95640
C          8.27802        6.12390       65.56402
C          8.33896        7.58150       65.09234
C          7.64682        7.79402       63.73220
N          6.19210        7.63061       63.81463
H          6.88325        4.37672       67.20516
H          9.67683        3.97735       66.56038
H          9.94674        6.36310       66.93998
H          8.32061        6.50118       67.70998
H          7.22367        5.79466       65.60808
H          8.81314        5.49476       64.81920
H          9.41115        7.85704       64.98512
H          7.87871        8.25789       65.84426
H          8.06682        7.09684       62.97288
H          7.86186        8.83194       63.39608
H          5.79842        8.28774       64.52718
H          5.77138        7.85815       62.88505
H          5.93035        6.64895       64.05430
N          8.98505        4.63530       69.82623
C          9.51649        4.47257       71.17697
C         10.01720        3.04576       71.41729
O         11.16789        2.91667       71.81308
C          8.52945        5.01928       72.23913
C          7.14692        4.43430       72.20951
O          6.94565        3.14424       72.49789
O          6.18706        5.14749       71.96573
H          8.03299        5.01692       69.71343
H         10.41001        5.13021       71.27718
H          8.42759        6.11273       72.05513
H          8.96063        4.89458       73.25577
N          9.28036        1.93733       71.09987
C          9.84041        0.58398       71.12998
C          9.13362       -0.38668       72.05912
O          9.55710       -1.53306       72.11135
H          8.32749        2.05651       70.72904
H         10.90732        0.59796       71.44107
H          9.81282        0.17696       70.09759
N          8.09768       -0.00946       72.85940
C          7.51041       -0.87895       73.88100
C          6.62590       -2.00452       73.33961
O          6.06566       -2.73630       74.14420
C          6.75992       -0.02458       74.92911
C          5.42710        0.52963       74.48294
N          4.31579        0.29134       75.21705
O          5.34602        1.21480       73.47677
H          7.80624        0.97042       72.83234
H          8.35330       -1.33458       74.44702
H          7.42275        0.81637       75.22942
H          6.59948       -0.64712       75.83528
H          4.36021       -0.27004       76.08013
H          3.40911        0.68919       74.93709
N          6.46453       -2.22683       72.00505
C          5.64275       -3.29629       71.46659
C          4.16189       -2.97698       71.42823
O          3.43412       -3.80498       70.89790
H          6.99446       -1.66898       71.32911
H          5.84775       -4.25142       71.99787
H          5.93484       -3.44703       70.40324
N          3.63688       -1.80172       71.89695
C          2.24040       -1.42642       71.67586
C          2.17047       -0.10346       70.87380
O          3.29077        0.03197       70.05091
C          1.48282       -1.23523       72.99918
C          1.40960       -2.48189       73.83896
C          0.24769       -3.26936       73.82127
C          2.47602       -2.84838       74.67623
C          0.15356       -4.40760       74.62463
C          2.37485       -3.98060       75.49088
C          1.21111       -4.76421       75.46700
O          1.09457       -5.85478       76.25079
H          4.24601       -1.11485       72.36150
H          1.72164       -2.21396       71.08549
H          0.44700       -0.91238       72.76169
H          1.92437       -0.41701       73.60088
H         -0.58506       -3.00331       73.18195
H          3.37464       -2.24810       74.71507
H         -0.74729       -5.00725       74.59758
H          3.19720       -4.24355       76.14438
H          1.79424       -6.12744       76.86102
N          0.93297       -0.00155       70.06416
C          0.64137        1.39519       69.64921
C         -0.70192        1.93423       70.16553
O         -1.51097        1.19582       70.71056
C          0.72252        1.55257       68.09491
C         -0.33752        0.67688       67.38160
C          2.13488        1.25178       67.57445
C         -0.36341        0.86465       65.86193
H          0.12816       -0.44770       70.55562
H          1.40097        2.05720       70.09952
H          0.52118        2.61801       67.84589
H         -1.34464        0.95022       67.76132
H         -0.15864       -0.39658       67.60721
H          2.40123        0.18646       67.72468
H          2.22787        1.48920       66.49701
H          2.86573        1.89850       68.08693
H         -0.54069        1.93125       65.60716
H          0.58293        0.52577       65.39342
H         -1.18078        0.25199       65.42897
N         -0.97139        3.26463       70.03432
C         -2.19309        3.92697       70.47265
C         -2.75187        4.78229       69.34150
O         -2.17048        4.81027       68.26722
C         -1.86742        4.80570       71.69581
O         -0.92712        5.79038       71.36089
H         -0.25053        3.86644       69.62079
H         -2.95744        3.18296       70.78648
H         -1.45619        4.15908       72.50270
H         -2.79767        5.28619       72.07222
H         -0.85110        6.38161       72.15456
N         -3.86683        5.54041       69.52464
C         -4.37049        6.47886       68.52433
C         -3.36135        7.58737       68.25351
O         -3.11061        7.88791       67.09573
C         -5.68494        7.10367       68.99948
H         -4.36448        5.46842       70.42557
H         -4.60068        5.93826       67.57808
H         -5.54167        7.66666       69.94574
H         -6.07788        7.79527       68.22265
H         -6.44008        6.30532       69.16372
N         -2.73225        8.22372       69.28631
C         -1.77254        9.31718       69.11753
C         -0.66292        8.95107       68.15200
O         -0.45916        9.66600       67.18047
C         -1.16353        9.69657       70.47542
H         -2.93765        7.89970       70.24424
H         -2.30617       10.20828       68.71919
H         -0.44927       10.53924       70.35610
H         -1.96197       10.00910       71.18058
H         -0.62041        8.83436       70.92044
N          0.07006        7.82365       68.34458
C          1.11326        7.36372       67.43033
C          0.55017        7.21827       66.02319
O          1.10198        7.81555       65.10942
C          1.69408        6.03642       67.95640
C          2.53390        6.26501       69.23863
C          2.82505        4.96360       69.91700
O          4.06671        4.46763       70.04255
O          1.90096        4.32947       70.38208
H         -0.16489        7.24171       69.16340
H          1.94314        8.10435       67.38546
H          2.35247        5.56821       67.19519
H          0.84603        5.34065       68.14002
H          1.98963        6.89320       69.97468
H          3.47410        6.78711       68.95931
N         -0.57892        6.49539       65.78665
C         -1.21081        6.39288       64.48503
H         -2.22955        6.83413       64.53764
H         -0.64600        6.92869       63.69343
H         -1.29977        5.32559       64.19674
H         -1.04255        6.02846       66.57223
Ca         4.03440        2.20717       70.23947
O          3.89166        4.36008       73.89224
H          3.16042        4.96994       73.62034
H          4.56329        4.95212       74.31470
O          1.75513        2.30732       73.03064
H          1.40836        3.22977       72.94241
H          0.96806        1.77811       73.31306

Ca 1.0



