%chk=holoCaM-CaMKII.loop2.water0.frame297.chk
%nprocshared=20
%mem=10GB
%nosave
#b3lyp/svp scf=(tight,noincore,xqc) Test 
#IOP(5/87=12) Density=Current Pop=(MK,readradii) iop(6/33=2) iop(6/42=6)

holoCaM-CaMKII.loop2.water0.frame297 

   -2  1 
C         39.80119        9.83624       72.72276
C         41.04509        9.01663       72.92535
O         41.91572        9.03519       72.06778
H         39.09306        9.71670       73.57090
H         40.07248       10.91123       72.65104
H         39.28932        9.52482       71.78982
N         41.21439        8.30312       74.07143
C         42.43146        7.56151       74.38137
C         42.48321        6.26563       73.57544
O         41.51105        5.52416       73.61854
C         42.47635        7.28877       75.90064
C         43.86573        6.98101       76.38131
O         44.45574        7.78445       77.28641
O         44.47681        6.02626       75.94749
H         40.47569        8.36176       74.79017
H         43.29449        8.22062       74.16661
H         41.75991        6.48545       76.17815
H         42.17343        8.21595       76.43499
N         43.57986        5.91336       72.83782
C         43.63214        4.71020       72.00258
C         44.60107        3.64296       72.51451
O         44.66389        2.59002       71.89459
C         44.01431        5.12157       70.57366
H         44.40853        6.52262       72.85935
H         42.63319        4.22532       71.96488
H         43.28521        5.85978       70.17756
H         45.02620        5.58432       70.56256
H         44.02314        4.24174       69.89514
N         45.39228        3.83034       73.61035
C         46.36926        2.84501       74.08892
C         46.21515        2.47930       75.57265
O         46.98193        1.64100       76.02765
C         47.79442        3.35672       73.78461
C         47.97457        4.78671       74.17711
O         48.25841        5.61871       73.32929
O         47.74558        5.18703       75.43205
H         45.35856        4.73749       74.08851
H         46.26478        1.88419       73.53990
H         47.96425        3.29513       72.68741
H         48.55748        2.71823       74.27867
N         45.25674        3.01377       76.38580
C         45.06630        2.60477       77.77700
C         46.20748        2.92404       78.74108
O         46.09958        2.52460       79.89191
H         44.57830        3.67617       75.99637
H         44.88908        1.50785       77.79256
H         44.15292        3.09830       78.17578
N         47.32149        3.61945       78.37118
C         48.46020        3.87729       79.26067
C         48.15915        4.80892       80.44852
O         49.07069        5.03920       81.23205
C         49.66901        4.40485       78.43949
C         49.45894        5.74754       77.78809
N         50.43083        6.29359       77.02194
O         48.40740        6.34418       77.93691
H         47.39492        3.92519       77.39846
H         48.78929        2.89847       79.67550
H         49.89806        3.66592       77.64004
H         50.56078        4.47597       79.09875
H         51.32255        5.80095       76.87137
H         50.28885        7.20984       76.57136
N         46.92629        5.35627       80.67691
C         46.61785        6.16737       81.85092
C         47.01762        7.62963       81.73654
O         46.74975        8.36942       82.67182
H         46.14154        5.13118       80.05335
H         47.05973        5.70077       82.75971
H         45.51607        6.16623       81.99088
N         47.63428        8.12624       80.62878
C         48.00460        9.52729       80.44105
C         47.36595       10.09078       79.17203
O         46.66337        9.37707       78.47068
C         49.55298        9.63820       80.38290
C         50.16853        9.32092       81.74758
O         50.09155        8.76113       79.42571
H         47.86956        7.48307       79.87230
H         47.64253       10.15694       81.28341
H         49.87010       10.67845       80.15132
H         49.79739        9.08149       78.53426
H         49.78206       10.03080       82.51137
H         49.92888        8.28464       82.06472
H         51.27233        9.43318       81.69914
N         47.60411       11.38755       78.81619
C         47.10418       12.02509       77.60069
C         48.29678       12.30118       76.70430
O         49.31889       12.76482       77.19078
C         46.34992       13.34578       77.93247
C         45.18137       13.07901       78.91407
C         45.83482       14.00776       76.63203
C         44.48628       14.35851       79.38842
H         48.20907       11.95914       79.42371
H         46.39566       11.35682       77.06145
H         47.06687       14.04054       78.42416
H         45.57840       12.57948       79.82317
H         44.43285       12.40256       78.44607
H         45.10955       13.34321       76.11362
H         45.35073       14.98312       76.83060
H         46.66949       14.22630       75.93773
H         43.98477       14.88859       78.55445
H         43.70620       14.10103       80.13449
H         45.22312       15.03892       79.86661
N         48.21535       12.06788       75.36593
C         49.34190       12.22520       74.45143
C         49.11309       13.43207       73.57460
O         48.08157       14.07093       73.69984
C         49.47362       10.96587       73.57314
C         49.44701        9.69896       74.36899
O         48.37182        9.45429       75.13844
O         50.32245        8.85748       74.24604
H         47.31082       11.77231       74.97061
H         50.28403       12.38090       75.02023
H         50.38714       11.01446       72.94157
H         48.59077       10.91387       72.89805
N         50.04975       13.83094       72.67273
C         49.83793       14.99693       71.82940
C         48.66974       14.77926       70.86177
O         47.76731       15.60593       70.89227
C         51.14128       15.42231       71.11673
C         50.92687       16.65469       70.27384
C         50.55767       17.87433       70.86901
C         51.08610       16.59079       68.87958
C         50.34966       19.00818       70.07977
C         50.87449       17.72672       68.09430
C         50.50683       18.93437       68.69346
H         50.94092       13.31581       72.61317
H         49.58457       15.85132       72.49693
H         51.54387       14.61284       70.49175
H         51.92435       15.63736       71.87585
H         50.43209       17.94988       71.94183
H         51.36503       15.66079       68.39942
H         50.06560       19.94371       70.54380
H         50.99408       17.66910       67.02055
H         50.34354       19.81279       68.08359
N         48.57961       13.72647       69.98202
C         47.47456       13.54053       69.04370
C         46.11723       13.55097       69.71508
O         45.21159       14.22360       69.24492
C         47.72481       12.14684       68.44649
C         49.22673       12.05435       68.49120
C         49.52546       12.63036       69.86921
H         47.54146       14.31852       68.24991
H         47.35573       11.35312       69.13618
H         47.25830       11.98424       67.45132
H         49.64404       11.04058       68.31404
H         49.63318       12.75315       67.72402
H         49.31622       11.89811       70.67936
H         50.58533       12.90983       69.87512
N         45.92892       12.80988       70.84145
C         44.65989       12.68964       71.54902
C         44.16875       14.06310       71.96368
O         43.07778       14.45188       71.56969
C         44.82359       11.77366       72.78676
C         45.27901       10.34584       72.41394
C         45.53718        9.48624       73.61703
O         45.95329        8.35143       73.45778
O         45.33486        9.94625       74.86752
H         46.75248       12.31970       71.21571
H         43.90696       12.22364       70.87380
H         43.85438       11.70784       73.32916
H         45.57578       12.22436       73.46749
H         46.22955       10.36677       71.84735
H         44.51080        9.86289       71.77355
N         44.94891       14.87031       72.72970
C         44.56082       16.21109       73.10157
H         43.62994       16.18630       73.70459
H         45.36826       16.68063       73.70396
H         44.40317       16.82370       72.18821
H         45.86469       14.53083       73.03976
Ca        47.72753        7.39545       75.56088

Ca 1.0



