%chk=holoCaM.loop3.water1.frame12.chk
%nprocshared=20
%mem=10GB
%nosave
#b3lyp/svp scf=(tight,noincore,xqc) Test 
#IOP(5/87=12) Density=Current Pop=(MK,readradii) iop(6/33=2) iop(6/42=6)

holoCaM.loop3.water1.frame12 

   0  1 
C         56.27930       30.71875       51.74990
C         56.15224       31.77511       50.69056
O         55.52517       32.79458       50.94076
H         56.78887       31.15401       52.63669
H         55.27670       30.35170       52.04606
H         56.88729       29.85886       51.39565
N         56.77985       31.62270       49.49337
C         56.84020       32.68482       48.50065
C         55.52097       32.82936       47.73790
O         55.06038       31.86916       47.13709
C         58.04698       32.44053       47.57546
C         58.40851       33.68291       46.82507
O         57.65099       34.14300       45.99743
O         59.55537       34.32827       47.10549
H         57.34504       30.77156       49.34450
H         57.08754       33.62756       49.04138
H         57.88094       31.57926       46.89233
H         58.92369       32.20428       48.21784
N         54.88016       34.03289       47.71285
C         53.61422       34.31573       47.02877
C         53.69538       34.02397       45.52776
O         52.85602       33.30484       45.00571
C         53.26770       35.82225       47.22264
C         51.85728       36.23092       46.74960
C         50.72542       35.82351       47.71807
C         50.74503       36.55494       49.08401
N         50.58130       38.00651       48.94725
H         55.32384       34.80260       48.22950
H         52.81746       33.69737       47.49517
H         54.01325       36.41824       46.65291
H         53.38336       36.11663       48.28146
H         51.67014       35.80193       45.74282
H         51.82043       37.33134       46.62419
H         50.75760       34.72754       47.89007
H         49.75262       36.05549       47.23342
H         51.67365       36.33681       49.65148
H         49.89921       36.16389       49.69121
H         49.71195       38.22449       48.40775
H         50.49829       38.43353       49.89819
H         51.40998       38.43620       48.47911
N         54.68774       34.58440       44.78157
C         54.82951       34.48576       43.32534
C         56.03811       33.63806       42.92616
O         56.39690       33.63896       41.75639
C         54.86260       35.91708       42.71250
C         55.77696       36.84645       43.45921
O         55.30059       37.78703       44.07584
O         57.08135       36.57517       43.60368
H         55.40220       35.12348       45.28923
H         53.95983       33.97152       42.86064
H         53.83697       36.33993       42.79631
H         55.12166       35.89086       41.63262
N         56.62695       32.78240       43.81223
C         57.67111       31.83119       43.45994
C         59.02276       32.41340       43.07532
O         59.88253       31.61303       42.73204
H         56.24275       32.70534       44.76197
H         57.30006       31.20898       42.61445
H         57.83778       31.15004       44.32156
N         59.30014       33.75271       43.04703
C         60.54472       34.25267       42.45251
C         61.79500       34.04234       43.30529
O         62.88392       34.11398       42.75468
C         60.41288       35.72408       42.00812
C         60.49441       36.72038       43.13754
N         61.39705       37.72718       43.10074
O         59.74019       36.62844       44.08814
H         58.56195       34.42055       43.30396
H         60.67008       33.68179       41.50443
H         59.44450       35.84439       41.47509
H         61.22148       35.95007       41.28102
H         62.04194       37.83473       42.30494
H         61.43943       38.41613       43.86382
N         61.72345       33.85899       44.65568
C         62.89092       33.66056       45.50897
C         63.14553       34.80077       46.48466
O         64.04682       34.64891       47.29910
H         60.80234       33.86329       45.10643
H         63.81852       33.53435       44.91039
H         62.73694       32.71905       46.07944
N         62.45089       35.97776       46.44964
C         62.71214       37.10095       47.35203
C         61.44671       37.47587       48.10136
O         60.42300       37.69306       47.46461
C         63.22255       38.34324       46.59577
C         64.55883       38.13080       45.92088
C         64.66579       37.37474       44.74077
C         65.71744       38.71490       46.46411
C         65.90746       37.21199       44.11567
C         66.95779       38.54021       45.84557
C         67.05666       37.79086       44.66574
O         68.24647       37.62358       44.05343
H         61.72146       36.10653       45.73505
H         63.50528       36.84706       48.09092
H         63.34137       39.14239       47.36184
H         62.48355       38.72043       45.86109
H         63.78988       36.92514       44.29328
H         65.66495       39.30014       47.37384
H         65.97634       36.63789       43.20023
H         67.83993       38.99107       46.28319
H         69.06319       38.00915       44.40241
N         61.45736       37.60924       49.46005
C         60.27534       37.93756       50.25218
C         60.44608       39.28918       50.93605
O         61.29505       39.42989       51.80652
C         60.01191       36.77896       51.26153
C         59.56947       35.51929       50.46853
C         58.97514       37.16207       52.33602
C         59.43945       34.25507       51.31593
H         62.34607       37.46488       49.96555
H         59.38232       38.02331       49.59842
H         60.96363       36.56282       51.79809
H         60.32137       35.29606       49.68206
H         58.59749       35.71915       49.96617
H         58.00550       37.42801       51.87906
H         58.82974       36.34080       53.06421
H         59.33305       38.02424       52.93447
H         60.41267       34.01633       51.79392
H         58.65615       34.35867       52.09212
H         59.14941       33.40717       50.66033
N         59.63390       40.33096       50.58400
C         59.63055       41.63092       51.25475
C         58.91840       41.54890       52.60375
O         58.38851       40.50109       52.94081
C         58.92819       42.67439       50.36060
O         57.59738       42.30306       50.12505
H         58.98862       40.19351       49.79117
H         60.68069       41.97118       51.39238
H         59.47808       42.73101       49.39365
H         58.95244       43.67632       50.84136
H         57.25386       42.91545       49.42419
N         58.85616       42.63786       53.42521
C         58.13156       42.64590       54.69659
C         56.63155       42.50814       54.49433
O         55.99478       41.83489       55.29272
C         58.41878       43.92555       55.48318
H         59.35283       43.49517       53.13826
H         58.49728       41.80837       55.33308
H         57.89448       43.88973       56.46382
H         59.50929       44.00140       55.68222
H         58.08426       44.82426       54.92503
N         55.99702       43.11104       53.44563
C         54.57268       42.92585       53.16898
C         54.29256       41.45496       52.92710
O         53.45713       40.86611       53.59801
C         54.15709       43.73269       51.92556
H         56.55678       43.68534       52.79589
H         53.97069       43.29619       54.02772
H         53.07377       43.59145       51.72036
H         54.34473       44.81424       52.08901
H         54.72508       43.41729       51.02340
N         55.00729       40.80473       51.97267
C         54.86636       39.39615       51.61945
C         55.21551       38.45166       52.76552
O         54.89974       37.27380       52.66657
C         55.79211       39.16236       50.41185
C         55.82773       37.76560       49.80108
C         56.69213       37.76691       48.56550
O         56.83859       36.63856       47.86892
O         57.21824       38.78851       48.14867
H         55.69377       41.36883       51.45218
H         53.80742       39.22080       51.32364
H         56.83134       39.42643       50.70991
H         55.45842       39.86993       49.61867
H         54.80040       37.46184       49.51869
H         56.22873       37.02715       50.52337
N         55.88250       38.87823       53.87157
C         56.22577       37.99548       54.96313
H         56.79924       38.55597       55.73268
H         55.30216       37.59299       55.42905
H         56.85482       37.15915       54.59296
H         56.18476       39.85269       53.93986
Ca        57.61251       36.77912       45.77702
O         58.30676       39.50647       44.98042
H         59.07586       40.00058       44.60122
H         57.51194       39.90188       44.54196

Ca 1.0



