%chk=holoCaM.loop3.water2.frame47.chk
%nprocshared=20
%mem=10GB
%nosave
#b3lyp/svp scf=(tight,noincore,xqc) Test 
#IOP(5/87=12) Density=Current Pop=(MK,readradii) iop(6/33=2) iop(6/42=6)

holoCaM.loop3.water2.frame47 

   0  1 
C         97.31595       58.48718       17.79592
C         97.70127       59.48930       18.84620
O         98.63624       59.24015       19.59300
H         96.45420       58.84460       17.19157
H         98.17199       58.30831       17.11374
H         97.02412       57.53290       18.28223
N         96.99882       60.64707       18.96857
C         97.25584       61.66553       19.97362
C         96.06415       61.68904       20.90031
O         95.25863       62.60558       20.85767
C         97.55786       63.00506       19.26795
C         97.67395       64.18862       20.19722
O         98.54320       64.22371       21.23056
O         96.94957       65.15127       20.00810
H         96.20418       60.81120       18.33023
H         98.13697       61.41628       20.59340
H         96.75372       63.22106       18.52983
H         98.51105       62.90195       18.71102
N         95.88524       60.64716       21.75884
C         94.75761       60.54192       22.67620
C         94.78226       61.55257       23.82263
O         93.81751       61.55709       24.57538
C         94.65247       59.09971       23.22845
C         94.40527       58.03457       22.13037
C         93.17676       58.30218       21.23341
C         91.86438       58.44503       22.02360
N         90.74579       58.74008       21.12980
H         96.56763       59.87386       21.72118
H         93.82770       60.75571       22.11234
H         93.81547       59.04221       23.95472
H         95.57937       58.84002       23.78610
H         94.28475       57.04789       22.62755
H         95.29437       57.96237       21.46788
H         93.07819       57.46260       20.51166
H         93.34851       59.21945       20.63219
H         91.94331       59.27625       22.75567
H         91.66256       57.50391       22.58054
H         90.91775       59.64433       20.63169
H         90.62309       57.96995       20.43391
H         89.87197       58.83298       21.69668
N         95.78895       62.46171       24.00577
C         95.72927       63.51178       25.02920
C         95.55250       64.89908       24.40678
O         95.40753       65.86020       25.14955
C         96.93407       63.44506       25.99014
C         98.25871       63.72389       25.34122
O         98.97699       64.79450       25.72616
O         98.70986       62.96830       24.49800
H         96.59332       62.45607       23.36557
H         94.83013       63.36574       25.66644
H         96.97119       62.44627       26.47674
H         96.77469       64.19973       26.79171
N         95.47175       65.06826       23.05516
C         95.11529       66.31252       22.39892
C         96.15747       67.40580       22.44265
O         95.87459       68.45565       21.88228
H         95.56406       64.25841       22.44285
H         94.15984       66.68391       22.82826
H         94.92745       66.09856       21.32436
N         97.36338       67.27749       23.07112
C         98.30015       68.39892       23.13402
C         98.87324       68.79969       21.77231
O         99.40092       69.89985       21.67884
C         99.40925       68.16554       24.18351
C        100.31509       66.98187       23.94097
N        101.31176       66.71915       24.81623
O        100.15229       66.24937       22.97814
H         97.58930       66.40436       23.56682
H         97.71726       69.27093       23.50932
H         98.92259       68.01593       25.17232
H        100.03489       69.08186       24.24750
H        101.45854       67.31987       25.64056
H        101.93510       65.91234       24.67481
N         98.82502       67.97432       20.68408
C         99.28004       68.35933       19.35161
C        100.53645       67.63197       18.89830
O        100.93766       67.82964       17.76223
H         98.44944       67.02371       20.79371
H         99.50434       69.44724       19.29852
H         98.45167       68.16079       18.63815
N        101.25510       66.84985       19.75316
C        102.55281       66.25416       19.44013
C        102.57096       64.77770       19.79265
O        102.03579       64.39955       20.82259
C        103.61684       66.97091       20.28979
C        103.82073       68.39253       19.82606
C        103.34597       69.47238       20.58641
C        104.50394       68.64641       18.62327
C        103.54841       70.78543       20.14821
C        104.71953       69.95950       18.19573
C        104.24048       71.03460       18.95746
O        104.44144       72.30689       18.55824
H        100.92581       66.74819       20.71877
H        102.83066       66.37706       18.36991
H        104.59931       66.45168       20.23017
H        103.29169       66.94256       21.35308
H        102.80950       69.29820       21.51053
H        104.88586       67.82734       18.02566
H        103.17059       71.61086       20.73774
H        105.26082       70.13966       17.27489
H        104.92658       72.52203       17.74859
N        103.26365       63.89963       19.00875
C        103.42426       62.48104       19.31953
C        104.90368       62.17976       19.51957
O        105.67179       62.29138       18.57456
C        102.79490       61.63261       18.17010
C        101.25336       61.80157       18.21577
C        103.18955       60.14510       18.24025
C        100.50455       61.04534       17.11863
H        103.73057       64.25754       18.16189
H        102.90465       62.22026       20.26805
H        103.18813       62.01259       17.20026
H        101.00387       62.87918       18.11365
H        100.87036       61.45098       19.20068
H        102.78922       59.67613       19.15208
H        102.80896       59.59041       17.36044
H        104.28963       60.02267       18.20082
H        100.63193       59.94886       17.22646
H         99.41885       61.25351       17.20327
H        100.85538       61.36964       16.11776
N        105.36880       61.78262       20.74373
C        106.76047       61.39478       20.97220
C        107.05750       60.04526       20.33020
O        106.14395       59.39902       19.83611
C        107.06494       61.33051       22.48363
O        106.28906       60.34758       23.11878
H        104.71236       61.76854       21.53801
H        107.42189       62.17714       20.53883
H        106.89467       62.33287       22.94297
H        108.13592       61.09378       22.65776
H        105.56173       60.81300       23.60780
N        108.32623       59.54371       20.31852
C        108.64111       58.22557       19.77289
C        107.97244       57.12215       20.57437
O        107.64148       56.09492       19.99913
C        110.15177       57.98726       19.74422
H        109.08937       60.11942       20.70665
H        108.28539       58.18303       18.71832
H        110.64341       58.77007       19.12815
H        110.57455       58.01400       20.77073
H        110.37213       56.99789       19.28719
N        107.75048       57.26425       21.91361
C        107.05246       56.26773       22.71748
C        105.62580       56.11156       22.23143
O        105.21853       55.00295       21.91310
C        107.04603       56.68320       24.19507
H        108.07937       58.12384       22.37923
H        107.58839       55.29423       22.65222
H        106.52773       55.91303       24.80596
H        108.08913       56.77751       24.56456
H        106.53213       57.65742       24.33949
N        104.81295       57.20281       22.13782
C        103.42301       57.13805       21.69542
C        103.27178       56.65519       20.25389
O        102.14299       56.41060       19.84798
C        102.76741       58.52923       21.78384
C        102.64972       59.10641       23.19809
C        102.01898       60.46431       23.08794
O        102.62121       61.46199       23.44762
O        100.79831       60.57760       22.53183
H        105.20585       58.11584       22.40544
H        102.87742       56.42993       22.35793
H        101.74031       58.47169       21.35728
H        103.37549       59.23303       21.17795
H        103.64829       59.19367       23.67433
H        102.01247       58.44983       23.82770
N        104.33078       56.52173       19.40833
C        104.17047       56.07040       18.04365
H        103.50120       56.76334       17.49052
H        105.15743       56.04673       17.53451
H        103.73910       55.04688       18.03180
H        105.27697       56.76344       19.71927
Ca        99.88040       62.54040       21.91936
O        103.58914       64.60921       23.12231
H        104.33092       65.23957       22.94499
H        104.01783       63.71804       23.13729
O        101.66503       63.34993       25.76408
H        101.16704       63.42925       26.61603
H        102.31947       62.62604       25.92817

Ca 1.0



