%chk=holoCaM.loop4.water3.frame172.chk
%nprocshared=20
%mem=10GB
%nosave
#b3lyp/svp scf=(tight,noincore,xqc) Test 
#IOP(5/87=12) Density=Current Pop=(MK,readradii) iop(6/33=2) iop(6/42=6)

holoCaM.loop4.water3.frame172 

   -3  1 
C         19.48622      108.63683       -0.19340
C         20.50409      108.06233        0.74432
O         20.63920      106.85024        0.79319
H         18.74034      109.23278        0.36877
H         19.99976      109.28732       -0.93364
H         18.96368      107.82684       -0.74835
N         21.29364      108.88545        1.49148
C         22.39815      108.40099        2.30889
C         22.30247      108.87184        3.75294
O         22.25627      110.07046        3.99240
C         23.70928      108.89117        1.68037
C         24.88435      108.38044        2.45129
O         25.01822      107.05714        2.66026
O         25.69935      109.15972        2.91770
H         21.15869      109.90509        1.40966
H         22.42924      107.28869        2.29560
H         23.73171      110.00256        1.63845
H         23.77641      108.50742        0.64105
N         22.33691      107.95882        4.76838
C         22.35311      108.30372        6.19094
C         23.60298      107.77668        6.92221
O         23.73663      108.08023        8.09945
C         21.05100      107.78630        6.88238
C         20.89569      106.24316        6.75956
C         19.83015      108.52636        6.30612
C         19.70834      105.67087        7.53527
H         22.36211      106.96424        4.51384
H         22.38312      109.40928        6.31026
H         21.11338      108.04887        7.96217
H         21.81110      105.75197        7.15387
H         20.77003      105.95142        5.69742
H         19.69382      108.29134        5.22923
H         18.90292      108.26028        6.85142
H         19.96463      109.62329        6.41835
H         18.74446      106.05388        7.14396
H         19.69583      104.56581        7.42018
H         19.79693      105.91504        8.61430
N         24.52656      106.96039        6.32433
C         25.66512      106.35376        7.03744
C         27.02388      106.48377        6.31607
O         28.02011      106.06370        6.88931
C         25.37424      104.86522        7.34106
C         25.17322      104.01829        6.11752
O         25.06911      104.59334        4.90747
O         25.10680      102.80579        6.22505
H         24.36237      106.69693        5.35059
H         25.78731      106.84643        8.02686
H         24.47551      104.77148        7.98763
H         26.23973      104.45764        7.90909
N         27.15784      107.06905        5.09345
C         28.44037      107.33888        4.44929
C         29.24389      106.16796        3.88321
O         30.32467      106.45730        3.38738
H         26.32610      107.46050        4.64826
H         29.07867      107.89424        5.17079
H         28.25666      108.01882        3.58885
N         28.84282      104.85777        3.88028
C         29.70742      103.79389        3.32626
C         29.95855      103.90189        1.81014
O         30.76911      103.13897        1.30405
C         29.19951      102.37832        3.70498
C         27.86780      102.00354        3.12721
O         27.22651      102.84423        2.30656
O         27.33577      100.95736        3.45859
H         27.94389      104.60933        4.31899
H         30.69612      103.89201        3.82648
H         29.11188      102.33737        4.81273
H         29.94060      101.61232        3.39161
N         29.29968      104.80206        1.02519
C         29.56107      105.01034       -0.39678
C         28.52730      104.37875       -1.31762
O         28.55532      104.67814       -2.50359
H         28.59798      105.40632        1.45823
H         30.56786      104.64210       -0.68894
H         29.56835      106.10913       -0.56812
N         27.63974      103.44538       -0.87116
C         26.66651      102.74657       -1.70902
C         25.26225      102.84531       -1.10771
O         25.10013      103.45595       -0.05996
C         27.10249      101.26796       -1.82961
C         28.47877      101.14277       -2.50938
C         28.91521       99.70743       -2.63417
N         29.14284       98.95518       -1.53228
O         29.08449       99.22299       -3.74317
H         27.70417      103.14782        0.10296
H         26.63451      103.18355       -2.73179
H         26.37089      100.70172       -2.44381
H         27.13190      100.81265       -0.81543
H         29.25482      101.68709       -1.93084
H         28.41480      101.59867       -3.52255
H         29.02292       99.35067       -0.58852
H         29.45279       97.97633       -1.62276
N         24.19852      102.23840       -1.71331
C         22.83172      102.24371       -1.18878
C         22.44841      100.83065       -0.77570
O         22.34343       99.96692       -1.63760
C         21.85618      102.81484       -2.27388
C         20.37499      102.47517       -2.02868
C         21.99193      104.33973       -2.37785
H         24.36392      101.71558       -2.58732
H         22.75656      102.87406       -0.27755
H         22.11562      102.35992       -3.25595
H         20.02826      102.87156       -1.05786
H         19.74767      102.90584       -2.83823
H         20.20820      101.37873       -2.05700
H         21.65085      104.80907       -1.43107
H         23.03991      104.63878       -2.58127
H         21.34827      104.73210       -3.19450
N         22.20421      100.52931        0.53939
C         21.69796       99.22091        0.96203
C         20.20844       99.11939        0.66291
O         19.63464      100.11191        0.23496
C         22.03424       98.88207        2.43811
C         21.16436       99.48268        3.52723
N         21.07906      100.81118        3.74822
O         20.54128       98.72590        4.25731
H         22.38137      101.25643        1.24180
H         22.25325       98.45957        0.37011
H         23.10400       99.11046        2.62660
H         21.92919       97.77947        2.53916
H         21.58473      101.49020        3.17479
H         20.49823      101.16532        4.52238
N         19.50925       97.95595        0.82881
C         18.10639       97.86854        0.42106
C         17.18824       98.77395        1.22952
O         16.13514       99.13936        0.72525
C         17.53780       96.43466        0.39127
C         17.10043       95.90087        1.74128
C         15.72378       95.74774        1.99404
C         18.01838       95.56046        2.74905
C         15.27315       95.27203        3.22445
C         17.56292       95.07371        3.98126
C         16.19155       94.93064        4.22356
O         15.76711       94.46554        5.41562
H         20.00772       97.11704        1.15502
H         18.09421       98.21573       -0.63789
H         18.23464       95.73480       -0.11710
H         16.63364       96.49546       -0.25467
H         14.99096       96.00854        1.24004
H         19.08147       95.65843        2.58878
H         14.20892       95.17029        3.39737
H         18.27660       94.80812        4.75049
H         14.82639       94.35391        5.61658
N         17.48396       99.11409        2.51621
C         16.64754      100.01000        3.30734
C         16.71725      101.40541        2.70940
O         15.67859      101.96509        2.38772
C         17.05182       99.98473        4.80009
C         16.79687       98.58592        5.40316
C         17.05026       98.55040        6.88216
O         16.14720       98.25823        7.65094
O         18.27754       98.81406        7.36806
H         18.33060       98.71826        2.94750
H         15.59033       99.66004        3.27923
H         16.41370      100.71402        5.34726
H         18.11519      100.27959        4.93416
H         17.44771       97.83012        4.91810
H         15.73712       98.29818        5.21935
N         17.92324      101.99480        2.45888
C         18.06630      103.28482        1.77647
C         17.50855      103.26810        0.35347
O         17.39859      104.33666       -0.23296
C         19.55679      103.68191        1.69282
C         20.15278      104.04606        3.06000
C         21.64603      104.23890        3.00966
O         22.31205      104.51239        4.14363
O         22.27082      104.10536        1.97016
H         18.77156      101.48229        2.73679
H         17.50465      104.05508        2.34999
H         19.68827      104.56031        1.02837
H         20.11343      102.82760        1.24659
H         19.94440      103.24435        3.78928
H         19.67360      104.97732        3.43070
N         17.16230      102.11565       -0.28273
C         16.62304      102.09878       -1.62401
H         15.66191      102.65377       -1.65157
H         17.34126      102.56148       -2.33149
H         16.43761      101.05002       -1.94181
H         17.29953      101.21440        0.17920
Ca        25.25617      103.55667        2.96671
O         23.99970      101.18310        3.83503
H         23.57005      101.84700        4.43029
H         24.93412      101.13477        4.14856
O         23.82132      105.94715        0.07046
H         23.91728      106.38246       -0.81262
H         22.85016      105.83021        0.18868
O         26.46165      106.00277        0.64650
H         26.89337      106.82735        0.98380
H         26.50359      106.08939       -0.33668

Ca 1.0



