%chk=holoCaM.loop3.water3.frame253.chk
%nprocshared=20
%mem=10GB
%nosave
#b3lyp/svp scf=(tight,noincore,xqc) Test 
#IOP(5/87=12) Density=Current Pop=(MK,readradii) iop(6/33=2) iop(6/42=6)

holoCaM.loop3.water3.frame253 

   0  1 
C         34.99914       73.76858       72.78697
C         33.83502       74.49442       72.15686
O         32.75723       73.92806       72.06151
H         35.91249       74.40324       72.81808
H         34.74610       73.49267       73.83246
H         35.24010       72.84889       72.21492
N         33.98722       75.77633       71.72790
C         32.92178       76.60918       71.15554
C         32.44032       76.02803       69.82766
O         33.26168       75.68178       68.98965
C         33.48490       78.04128       71.02531
C         32.60862       79.20387       70.61464
O         31.30526       79.15184       70.28672
O         33.14379       80.29451       70.56558
H         34.92305       76.19773       71.85057
H         32.08173       76.66686       71.87966
H         34.34308       78.01641       70.31692
H         33.87820       78.31532       72.02949
N         31.10502       75.90279       69.57674
C         30.53305       75.26796       68.39269
C         30.07458       76.29104       67.35518
O         30.33773       76.05456       66.18402
C         29.39317       74.29972       68.79711
C         29.91951       73.13553       69.66330
C         28.84877       72.11790       70.10389
C         28.15328       71.38989       68.94411
N         27.23720       70.36636       69.45201
H         30.44681       76.27184       70.26999
H         31.30133       74.64533       67.88010
H         28.95077       73.88045       67.86931
H         28.60093       74.85058       69.34760
H         30.37699       73.55342       70.58594
H         30.70921       72.59167       69.10088
H         28.07689       72.61529       70.71754
H         29.35643       71.36004       70.74060
H         28.91524       70.90527       68.29543
H         27.57587       72.11752       68.33430
H         26.75708       69.90295       68.64706
H         27.76958       69.64188       69.98716
H         26.51481       70.79906       70.07288
N         29.46386       77.46975       67.68647
C         29.09676       78.48198       66.68390
C         30.02475       79.69763       66.70775
O         29.76367       80.65122       65.98678
C         27.60865       78.88914       66.79654
C         27.21152       79.61847       68.05119
O         28.08246       79.82521       69.05441
O         26.07109       80.03945       68.15509
H         29.31623       77.68400       68.68197
H         29.20168       78.06369       65.65935
H         26.97036       77.98611       66.69198
H         27.37703       79.56249       65.94157
N         31.17078       79.70395       67.44450
C         32.14193       80.78784       67.42805
C         31.69805       82.09883       68.05952
O         32.50880       83.01526       68.04372
H         31.43133       78.85688       67.96261
H         32.45004       80.97460       66.37712
H         33.04724       80.45445       67.97885
N         30.46819       82.29897       68.62475
C         30.07618       83.60064       69.17287
C         30.92369       84.04918       70.36455
O         30.89857       85.23196       70.67285
C         28.57662       83.66703       69.55838
C         28.14257       82.70740       70.64481
N         26.92602       82.84325       71.21842
O         28.87808       81.80776       71.01410
H         29.78438       81.53497       68.62034
H         30.23001       84.34552       68.35946
H         27.93899       83.49205       68.66580
H         28.37558       84.70105       69.91533
H         26.28956       83.60020       70.93119
H         26.63061       82.20570       71.97209
N         31.65437       83.16602       71.10311
C         32.48902       83.55437       72.23394
C         32.01093       82.97675       73.55173
O         32.69298       83.19506       74.54646
H         31.61330       82.16824       70.86861
H         32.53103       84.65855       72.35146
H         33.52183       83.19874       72.03365
N         30.84813       82.27111       73.66280
C         30.32982       81.73975       74.91494
C         30.15915       80.23501       74.83980
O         30.27977       79.65558       73.76682
C         28.96508       82.38344       75.25396
C         29.06766       83.85335       75.59076
C         29.43257       84.81139       74.62669
C         28.78299       84.27946       76.89979
C         29.52770       86.16283       74.97466
C         28.87857       85.62834       77.24425
C         29.25531       86.57535       76.28331
O         29.35630       87.88021       76.60614
H         30.27653       82.11701       72.82839
H         31.04155       81.94285       75.74668
H         28.54770       81.85143       76.13593
H         28.24518       82.23935       74.41831
H         29.63944       84.52370       73.60513
H         28.49288       83.56578       77.66101
H         29.81368       86.89055       74.22558
H         28.66114       85.93376       78.25981
H         29.18048       88.20169       77.50222
N         29.93229       79.52895       75.97998
C         29.77822       78.08014       76.04949
C         28.57113       77.76210       76.92648
O         28.51320       78.23659       78.05565
C         31.09431       77.44224       76.59119
C         32.25062       77.72401       75.58576
C         30.92537       75.92288       76.79975
C         33.62432       77.22478       76.03023
H         29.94171       80.04773       76.87502
H         29.61612       77.64647       75.03539
H         31.33609       77.90263       77.57489
H         32.35564       78.81805       75.43739
H         32.00956       77.26434       74.60039
H         30.10259       75.70763       77.51165
H         30.71096       75.41767       75.83560
H         31.83724       75.47545       77.24190
H         34.37587       77.50386       75.26051
H         33.90902       77.69752       76.99315
H         33.64859       76.12168       76.12965
N         27.59362       76.92211       76.48697
C         26.40908       76.55606       77.25831
C         26.52390       75.13630       77.80197
O         27.53598       74.48525       77.58054
C         25.16196       76.71067       76.36512
O         25.22433       75.80618       75.29509
H         27.71046       76.48889       75.56387
H         26.29737       77.22925       78.13659
H         25.11385       77.74875       75.97027
H         24.24428       76.51827       76.96280
H         24.31767       75.77091       74.89395
N         25.51353       74.59898       78.54458
C         25.53024       73.24954       79.10931
C         25.68000       72.19723       78.03064
O         26.53372       71.33299       78.15930
C         24.23675       72.98367       79.88660
H         24.68154       75.18368       78.72099
H         26.37360       73.15882       79.83068
H         23.35074       73.05764       79.22004
H         24.26437       71.96619       80.33329
H         24.12969       73.72248       80.70856
N         24.88633       72.22689       76.92494
C         25.01318       71.28640       75.81602
C         26.41473       71.31385       75.24050
O         27.01616       70.26271       75.06825
C         24.00756       71.64661       74.71359
H         24.18669       72.98205       76.85308
H         24.77853       70.25630       76.16267
H         22.97348       71.59777       75.11560
H         24.18910       72.67359       74.32727
H         24.08859       70.92936       73.86876
N         26.99747       72.50177       74.93168
C         28.31738       72.61923       74.31815
C         29.41950       72.02965       75.18734
O         30.46791       71.69102       74.65551
C         28.62938       74.09306       74.02934
C         27.58182       74.71951       73.08760
C         27.87911       76.14740       72.84931
O         29.06991       76.42972       72.33260
O         27.05367       77.02531       73.04918
H         26.46044       73.35408       75.14364
H         28.29832       72.06245       73.35464
H         29.64054       74.18145       73.56871
H         28.64983       74.63178       74.99510
H         26.54710       74.63447       73.45840
H         27.63291       74.21226       72.10976
N         29.26146       71.88725       76.53109
C         30.26104       71.27953       77.37920
H         31.21522       71.84240       77.31715
H         29.90924       71.28451       78.43384
H         30.42221       70.22526       77.06922
H         28.40356       72.22382       76.97647
Ca        29.62848       78.32320       71.43222
O         26.89995       79.93386       73.90247
H         26.10228       80.26232       73.41816
H         26.65012       80.00259       74.85767
O         26.97295       76.93070       69.78385
H         26.28790       76.45772       70.31846
H         26.83242       76.60741       68.85907
O         25.69871       79.33210       71.00716
H         25.01056       78.93605       70.41625
H         25.68840       80.29664       70.78601

Ca 1.0



