%chk=holoCaM.loop4.water3.frame176.chk
%nprocshared=20
%mem=10GB
%nosave
#b3lyp/svp scf=(tight,noincore,xqc) Test 
#IOP(5/87=12) Density=Current Pop=(MK,readradii) iop(6/33=2) iop(6/42=6)

holoCaM.loop4.water3.frame176 

   -3  1 
C         19.25001       -1.11766       79.53825
C         18.96821       -0.06101       80.56394
O         19.13421       -0.34312       81.74104
H         20.31351       -1.43084       79.62398
H         18.60073       -1.99917       79.71854
H         19.07760       -0.74257       78.50870
N         18.59563        1.19942       80.19077
C         18.43944        2.28851       81.14658
C         17.18516        3.11302       80.85736
O         17.05514        3.60877       79.74661
C         19.69110        3.18109       81.04944
C         19.80201        4.14788       82.19004
O         18.95194        4.07611       83.22920
O         20.71567        4.95578       82.21434
H         18.53971        1.42072       79.18498
H         18.39683        1.87736       82.17713
H         19.68713        3.72172       80.07846
H         20.60417        2.54794       81.08850
N         16.24120        3.33271       81.82124
C         15.03632        4.14708       81.61589
C         14.97410        5.36700       82.55177
O         13.98926        6.08958       82.48187
C         13.75435        3.26036       81.75696
C         13.55920        2.71489       83.19932
C         13.78877        2.13171       80.70830
C         12.29275        1.87378       83.38546
H         16.38422        2.90364       82.74287
H         15.02479        4.55882       80.58301
H         12.87353        3.89797       81.51813
H         13.49431        3.57122       83.90369
H         14.41957        2.09518       83.49833
H         12.83666        1.56418       80.69515
H         13.91758        2.56124       79.69204
H         14.62311        1.42641       80.90755
H         11.39114        2.45892       83.10800
H         12.33337        0.94398       82.78165
H         12.20621        1.56764       84.44980
N         15.95879        5.65216       83.45868
C         15.82456        6.68592       84.49463
C         17.13938        7.38800       84.91147
O         17.05552        8.29977       85.72318
C         15.11863        6.08762       85.73776
C         15.84891        4.91760       86.34256
O         16.89107        4.36587       85.69788
O         15.48910        4.46066       87.41491
H         16.74950        5.01074       83.50738
H         15.16834        7.49818       84.11041
H         14.09058        5.75649       85.47806
H         15.02844        6.88935       86.50336
N         18.36492        7.07467       84.39685
C         19.58578        7.82883       84.68408
C         20.17893        7.74142       86.09164
O         21.18026        8.41127       86.30474
H         18.43675        6.34876       83.68023
H         19.39723        8.89695       84.44306
H         20.38269        7.47201       83.99457
N         19.67399        6.96196       87.09352
C         20.27222        6.90028       88.44454
C         21.66657        6.23969       88.51396
O         22.19512        6.13236       89.61194
C         19.29832        6.21064       89.43337
C         18.97699        4.79057       89.08469
O         19.59506        4.19563       88.05437
O         18.08777        4.20785       89.68102
H         18.81044        6.43239       86.90553
H         20.37527        7.94131       88.82373
H         18.34582        6.78462       89.41082
H         19.69173        6.24957       90.47214
N         22.33676        5.80678       87.40646
C         23.68153        5.23974       87.42933
C         23.75403        3.76156       87.77738
O         24.84721        3.21612       87.68825
H         21.93428        5.97053       86.48147
H         24.34792        5.84883       88.07797
H         24.08472        5.30989       86.39571
N         22.66311        3.03479       88.14786
C         22.67628        1.59470       88.39508
C         21.66608        0.88633       87.49327
O         20.93738        1.54931       86.76505
C         22.34599        1.32695       89.88009
C         23.40132        1.93986       90.81626
C         23.07708        1.67982       92.26453
N         21.95545        2.18949       92.82562
O         23.84431        1.01440       92.94417
H         21.77135        3.51865       88.26684
H         23.67945        1.16587       88.17344
H         22.31805        0.23233       90.07043
H         21.34078        1.74470       90.10779
H         23.46880        3.03825       90.66618
H         24.39081        1.49211       90.57361
H         21.30405        2.76690       92.27452
H         21.74267        2.01597       93.81925
N         21.56247       -0.47132       87.50267
C         20.59419       -1.24724       86.72582
C         19.68638       -1.96883       87.70084
O         20.20570       -2.67708       88.55747
C         21.33108       -2.26389       85.80198
C         20.35222       -3.23359       85.10975
C         22.14545       -1.53871       84.72117
H         22.20063       -1.00099       88.11997
H         19.96971       -0.59102       86.08206
H         22.02776       -2.87275       86.42042
H         20.90926       -3.94713       84.46513
H         19.79602       -3.83839       85.85641
H         19.62146       -2.67988       84.48283
H         22.88010       -0.84085       85.17289
H         22.70237       -2.27401       84.10130
H         21.46823       -0.97244       84.04850
N         18.32394       -1.87032       87.61642
C         17.43195       -2.55712       88.54824
C         16.66710       -3.68550       87.87874
O         16.79851       -3.89806       86.68091
C         16.50017       -1.57719       89.31073
C         15.26228       -1.10005       88.57366
N         15.32557       -0.32404       87.47018
O         14.16451       -1.41422       89.01191
H         17.91768       -1.32146       86.84578
H         18.04926       -3.04055       89.33611
H         17.09222       -0.72406       89.69461
H         16.13233       -2.11425       90.21172
H         16.22172       -0.01400       87.08232
H         14.45757       -0.01208       87.00845
N         15.88280       -4.49008       88.64325
C         15.17136       -5.67927       88.17243
C         14.02008       -5.41010       87.20510
O         13.44273       -6.37976       86.73295
C         14.72630       -6.51548       89.39619
C         13.84122       -5.76561       90.36966
C         12.48439       -5.53274       90.09443
C         14.38448       -5.29342       91.57958
C         11.68682       -4.84498       91.01728
C         13.59291       -4.59083       92.48814
C         12.24145       -4.36848       92.21560
O         11.48845       -3.70032       93.11219
H         15.87183       -4.28370       89.65080
H         15.90228       -6.31289       87.62186
H         15.66931       -6.79111       89.91910
H         14.24859       -7.47313       89.09768
H         12.03927       -5.89587       89.17748
H         15.43058       -5.45175       91.81301
H         10.63870       -4.68320       90.80110
H         14.03275       -4.22137       93.40632
H         10.54610       -3.53314       92.97144
N         13.66489       -4.15464       86.81070
C         12.67466       -3.89378       85.76771
C         13.39135       -3.64021       84.44633
O         12.86562       -4.00854       83.40498
C         11.76199       -2.72284       86.19793
C         10.62859       -2.42691       85.19705
C          9.73747       -1.29687       85.64822
O          9.96244       -0.64813       86.80862
O          8.79486       -0.95949       84.94990
H         14.17628       -3.34878       87.18950
H         12.02856       -4.78743       85.61777
H         12.37857       -1.80705       86.33461
H         11.30053       -2.98644       87.17597
H         10.00278       -3.33735       85.07183
H         11.05890       -2.14882       84.21197
N         14.61072       -3.03309       84.41831
C         15.37016       -2.78888       83.19693
C         16.06261       -4.04236       82.68239
O         16.46647       -4.04304       81.52739
C         16.46291       -1.74245       83.47995
C         15.85511       -0.40726       83.93105
C         16.89152        0.56363       84.41372
O         16.53821        1.64176       84.85702
O         18.19843        0.24531       84.42096
H         15.01159       -2.70086       85.30368
H         14.68559       -2.38234       82.41865
H         17.07331       -1.56736       82.56980
H         17.12578       -2.14248       84.28092
H         15.15768       -0.56594       84.77469
H         15.27937        0.02619       83.08788
N         16.34200       -5.09495       83.50634
C         17.11028       -6.25305       83.09045
H         18.03661       -6.31444       83.70210
H         16.51363       -7.17352       83.25299
H         17.40909       -6.20784       82.02188
H         16.04312       -5.06943       84.49060
Ca        18.38194        3.03310       86.63709
O         17.33865        1.59264       88.73445
H         16.55854        2.14588       88.47727
H         17.39388        1.67752       89.71766
O         21.09432        1.51678       84.01576
H         20.30900        1.39277       83.43111
H         21.84336        1.69422       83.39533
O         21.14115        4.03332       85.16621
H         20.61545        4.85580       85.00297
H         22.00806        4.19667       84.71623

Ca 1.0



