%chk=holoCaM-CaMKII.loop4.water1.frame400.chk
%nprocshared=20
%mem=10GB
%nosave
#b3lyp/svp scf=(tight,noincore,xqc) Test 
#IOP(5/87=12) Density=Current Pop=(MK,readradii) iop(6/33=2) iop(6/42=6)

holoCaM-CaMKII.loop4.water1.frame400 

   -3  1 
C         39.21952       74.74322       69.06324
C         38.04452       75.20538       69.87656
O         38.22105       76.02038       70.76846
H         39.96914       74.26861       69.72970
H         38.91503       73.99678       68.29784
H         39.67985       75.60844       68.54366
N         36.80269       74.71953       69.61379
C         35.60280       75.09511       70.35576
C         35.73943       74.68872       71.82059
O         35.91368       73.51350       72.10927
C         34.39417       74.45698       69.64228
C         33.05929       74.58928       70.30663
O         32.40004       73.57874       70.46821
O         32.52570       75.77130       70.66754
H         36.71016       74.04897       68.83395
H         35.47597       76.19625       70.29042
H         34.58627       73.36864       69.50408
H         34.32154       74.91707       68.63245
N         35.69609       75.64448       72.79572
C         35.92836       75.39203       74.21799
C         34.61765       75.11353       74.94402
O         34.64024       74.34458       75.89529
C         36.69598       76.59094       74.88844
C         38.03224       76.87665       74.14687
C         36.94762       76.33677       76.39092
C         38.83357       78.05661       74.71212
H         35.53916       76.61613       72.50401
H         36.57976       74.49573       74.32915
H         36.06082       77.49808       74.82263
H         37.80574       77.12570       73.09045
H         38.67920       75.97323       74.16320
H         37.59110       75.44450       76.53783
H         37.42591       77.21340       76.87271
H         35.99421       76.19640       76.93824
H         38.21513       78.97523       74.74155
H         39.20836       77.84651       75.73365
H         39.72084       78.24271       74.07025
N         33.45219       75.73275       74.59080
C         32.21485       75.61508       75.36762
C         31.10135       74.85537       74.64992
O         30.01494       74.76187       75.20461
C         31.77342       77.01491       75.85552
C         31.40572       78.01310       74.78689
O         31.04182       79.25602       75.15535
O         31.42516       77.72247       73.60185
H         33.45229       76.34485       73.76296
H         32.39886       75.02780       76.29355
H         32.60592       77.44500       76.45444
H         30.89791       76.90225       76.53085
N         31.31410       74.19854       73.47624
C         30.31507       73.33632       72.85752
C         29.13021       74.09255       72.30437
O         28.00135       73.75716       72.63139
H         32.24648       74.23211       73.04096
H         29.99218       72.55358       73.57784
H         30.77810       72.80169       72.00788
N         29.32723       75.11028       71.42347
C         28.26565       75.83650       70.73513
C         28.44341       75.79400       69.21145
O         27.66267       76.42878       68.51571
C         28.17476       77.28142       71.27697
C         29.38427       78.16025       71.09461
O         29.34462       79.42483       71.55288
O         30.39603       77.75683       70.54906
H         30.29325       75.38542       71.23118
H         27.27727       75.37619       70.95686
H         27.96175       77.22337       72.36654
H         27.31103       77.78508       70.79172
N         29.40942       75.02906       68.61738
C         29.57060       74.89977       67.17635
C         30.24059       76.07675       66.49005
O         30.46397       75.96087       65.29253
H         30.01068       74.42596       69.19440
H         28.59032       74.66917       66.70407
H         30.23736       74.02981       66.98716
N         30.61575       77.21590       67.14553
C         31.33971       78.31045       66.49402
C         32.66101       78.58631       67.18894
O         32.93323       77.96837       68.20728
C         30.43178       79.55430       66.37460
C         29.85659       80.17601       67.66394
C         30.86374       80.91761       68.50980
N         30.81526       82.26636       68.59846
O         31.71457       80.30892       69.13753
H         30.39322       77.31573       68.14218
H         31.60110       78.02270       65.45231
H         29.55824       79.23083       65.76632
H         30.95160       80.34845       65.79616
H         29.31212       79.42751       68.27662
H         29.10062       80.91483       67.32060
H         30.11031       82.81270       68.08288
H         31.49647       82.77002       69.17825
N         33.56114       79.47062       66.66343
C         34.85629       79.76390       67.27814
C         35.07870       81.27827       67.33402
O         35.24259       81.88831       66.28580
C         35.97718       79.04242       66.46386
C         37.39599       79.38931       66.93884
C         35.80531       77.51351       66.53851
H         33.34610       79.90836       65.75424
H         34.89020       79.36556       68.31549
H         35.89880       79.35682       65.39948
H         37.55178       79.06998       67.98671
H         38.14671       78.87119       66.30425
H         37.59050       80.47391       66.84186
H         36.58807       77.00596       65.93546
H         35.89200       77.16341       67.59136
H         34.82065       77.19785       66.13882
N         35.11585       81.95046       68.52594
C         35.47311       83.37047       68.64230
C         36.95769       83.57530       68.36382
O         37.66471       82.61041       68.13709
C         35.17491       83.89930       70.07044
C         33.70118       84.00941       70.34819
N         33.13467       83.34914       71.38282
O         33.01468       84.73876       69.64722
H         34.89545       81.43210       69.38633
H         34.88335       83.96955       67.91386
H         35.56905       84.92803       70.19846
H         35.68237       83.25697       70.82085
H         33.69910       82.74609       71.99767
H         32.12704       83.45283       71.57559
N         37.50297       84.82606       68.39653
C         38.93155       85.09668       68.24147
C         39.73778       84.43317       69.34621
O         40.69691       83.73814       69.04279
C         39.19292       86.61802       68.28992
C         40.66852       86.92638       68.16701
C         41.37259       86.60145       66.99505
C         41.35681       87.52049       69.23835
C         42.74212       86.86471       66.89868
C         42.72640       87.77942       69.14097
C         43.42412       87.45171       67.96969
O         44.74617       87.69330       67.86361
H         36.87287       85.62658       68.55411
H         39.27157       84.71740       67.25228
H         38.80216       87.01389       69.25359
H         38.64095       87.12712       67.47105
H         40.86324       86.14176       66.15757
H         40.83747       87.77181       70.15494
H         43.27434       86.60800       65.99145
H         43.24408       88.23050       69.97806
H         45.25476       88.09406       68.58301
N         39.40543       84.62368       70.65483
C         40.14022       84.03713       71.77450
C         40.30078       82.54150       71.58994
O         41.39403       82.01868       71.75432
C         39.44297       84.37789       73.12378
C         38.04522       83.75088       73.31481
C         37.38099       84.24033       74.56823
O         37.04263       83.37074       75.53966
O         37.11564       85.42458       74.69971
H         38.57286       85.19708       70.85870
H         41.15435       84.49288       71.81594
H         39.35888       85.48484       73.18451
H         40.08741       84.04020       73.96560
H         38.14605       82.64799       73.38492
H         37.38127       84.00176       72.46281
N         39.23021       81.80311       71.20934
C         39.24743       80.36066       71.04570
C         40.17149       79.94215       69.91000
O         40.91361       78.98359       70.07101
C         37.81009       79.83473       70.85883
C         36.89972       80.29348       72.02268
C         35.60727       79.56313       72.02122
O         35.26024       78.94008       73.00819
O         34.83763       79.54270       70.92733
H         38.35121       82.30687       71.03203
H         39.60890       79.89350       71.98923
H         37.86043       78.72379       70.83626
H         37.36810       80.19571       69.90698
H         36.67286       81.37248       71.94880
H         37.40360       80.11117       72.99160
N         40.22570       80.65876       68.75402
C         41.13179       80.34643       67.67012
H         42.18149       80.35751       68.03440
H         40.88997       79.35172       67.24336
H         41.03694       81.11192       66.86829
H         39.63226       81.48508       68.65093
Ca        33.49379       77.77419       70.85100
O         31.97023       80.66342       72.50082
H         32.61197       80.69135       73.25432
H         31.28985       81.34554       72.73011

Ca 1.0



