%chk=holoCaM-CaMKII.loop2.water2.frame226.chk
%nprocshared=20
%mem=10GB
%nosave
#b3lyp/svp scf=(tight,noincore,xqc) Test 
#IOP(5/87=12) Density=Current Pop=(MK,readradii) iop(6/33=2) iop(6/42=6)

holoCaM-CaMKII.loop2.water2.frame226 

   -2  1 
C         38.66730       40.92733       63.45615
C         37.52502       40.15668       64.05481
O         36.38270       40.43880       63.72564
H         39.64664       40.55790       63.82915
H         38.65245       40.81157       62.35157
H         38.57431       42.00226       63.71297
N         37.76487       39.14451       64.93204
C         36.71376       38.30557       65.49339
C         35.75758       39.09758       66.37343
O         36.19766       39.68854       67.34985
C         37.34828       37.16331       66.31069
C         36.30722       36.22313       66.83176
O         36.19030       36.01131       68.15629
O         35.55683       35.65635       66.05503
H         38.74615       38.93080       65.17096
H         36.15748       37.84173       64.64852
H         37.93545       37.57890       67.15865
H         38.04139       36.58689       65.66242
N         34.41992       39.10604       66.09801
C         33.42104       39.77871       66.92071
C         32.36625       38.82312       67.48874
O         31.56330       39.28517       68.28773
C         32.73353       40.85711       66.07658
H         34.09559       38.61364       65.25986
H         33.91414       40.27225       67.78568
H         31.98963       41.41824       66.68099
H         33.48689       41.57618       65.69045
H         32.21220       40.39347       65.20976
N         32.26285       37.51219       67.10645
C         31.21335       36.60830       67.59625
C         31.73462       35.27518       68.14147
O         30.93016       34.52350       68.67586
C         30.17312       36.36269       66.48562
C         30.78712       36.06520       65.14890
O         31.68540       35.08096       64.98917
O         30.49036       36.75602       64.18687
H         32.89717       37.15347       66.38127
H         30.66635       37.07309       68.44541
H         29.55727       37.28056       66.36569
H         29.48465       35.54200       66.78227
N         33.04037       34.90585       68.06110
C         33.56947       33.67409       68.62591
C         32.95444       32.41499       68.04977
O         32.45276       31.60997       68.82185
H         33.70935       35.53409       67.61163
H         33.42633       33.68883       69.72920
H         34.66294       33.63355       68.43113
N         32.99473       32.15493       66.71090
C         32.54853       30.88694       66.12507
C         33.68518       30.18771       65.36518
O         33.42617       29.19428       64.69990
C         31.28453       31.08629       65.25559
C         31.46681       31.87105       63.99008
N         30.41911       32.04892       63.15268
O         32.55600       32.33123       63.70232
H         33.38821       32.87478       66.08553
H         32.22056       30.18433       66.92194
H         30.49927       31.57706       65.87122
H         30.90646       30.08296       64.96113
H         29.49353       31.65610       63.37729
H         30.53103       32.56890       62.27201
N         34.98056       30.61208       65.47319
C         36.11607       29.94561       64.84951
C         36.31515       30.22814       63.36722
O         37.28198       29.70876       62.82884
H         35.20178       31.37543       66.12484
H         36.05283       28.85159       65.03778
H         37.04082       30.31023       65.34763
N         35.48389       31.03302       62.64164
C         35.67953       31.32962       61.21735
C         35.72828       32.83815       60.97171
O         35.57467       33.60366       61.91238
C         34.53731       30.68782       60.38518
C         34.47173       29.16331       60.56504
O         33.29503       31.28438       60.66939
H         34.66915       31.44278       63.10631
H         36.63813       30.89648       60.85672
H         34.74259       30.85591       59.30729
H         32.97800       30.93655       61.54132
H         34.23782       28.89634       61.61758
H         33.67852       28.74329       59.91128
H         35.44281       28.70183       60.28634
N         35.88205       33.33148       59.70404
C         35.78371       34.75078       59.37189
C         34.49148       34.95129       58.59997
O         34.36368       34.44733       57.49257
C         37.02823       35.23857       58.55874
C         38.30013       35.18549       59.44322
C         36.81063       36.66462       58.00041
C         39.59373       35.54362       58.70411
H         35.99292       32.66981       58.92185
H         35.71958       35.36295       60.29596
H         37.16260       34.55887       57.68762
H         38.42237       34.15763       59.84554
H         38.18631       35.88458       60.29731
H         37.65939       36.98758       57.36619
H         35.92682       36.69772       57.33200
H         36.66845       37.39637       58.82222
H         40.45267       35.45265       59.40189
H         39.75413       34.85480       57.84866
H         39.58484       36.59057       58.33901
N         33.48303       35.68836       59.14591
C         32.23859       35.99364       58.44454
C         32.43678       37.19446       57.55015
O         33.51000       37.76927       57.55194
C         31.10514       36.22846       59.46103
C         30.76512       34.92406       60.11960
O         31.71592       34.22276       60.76032
O         29.64348       34.45541       60.00946
H         33.61130       36.07434       60.09281
H         31.94737       35.13830       57.79428
H         30.19208       36.60093       58.95008
H         31.40873       36.98940       60.21532
N         31.44502       37.60235       56.70861
C         31.63341       38.70780       55.77943
C         31.86673       40.03249       56.50417
O         32.88501       40.64603       56.20566
C         30.48193       38.79066       54.75345
C         30.73635       39.89435       53.75467
C         29.86192       40.99044       53.67224
C         31.86049       39.84686       52.90944
C         30.11342       42.02419       52.76565
C         32.10746       40.88216       52.00551
C         31.23570       41.97098       51.93441
H         30.55949       37.07622       56.68919
H         32.54139       38.47641       55.17959
H         29.51333       38.94703       55.25386
H         30.40032       37.82527       54.20837
H         28.99272       41.05066       54.31551
H         32.54891       39.01224       52.95025
H         29.43977       42.86893       52.71073
H         32.97704       40.84022       51.36248
H         31.43067       42.77341       51.23557
N         31.02769       40.55480       57.45956
C         31.28217       41.79987       58.17955
C         32.70718       41.92099       58.68089
O         33.33418       42.95169       58.49127
C         30.32744       41.72075       59.38072
C         29.14467       41.00818       58.78143
C         29.82505       39.91232       57.96663
H         31.01603       42.66018       57.52431
H         30.73592       41.03405       60.15827
H         30.10884       42.69785       59.86157
H         28.38782       40.64058       59.50697
H         28.65263       41.71997       58.07930
H         30.12522       39.05180       58.60133
H         29.10796       39.59379       57.19480
N         33.27417       40.86362       59.32041
C         34.61888       40.86525       59.88120
C         35.64575       41.12070       58.79121
O         36.39127       42.08572       58.89247
C         34.88915       39.51944       60.59424
C         33.89287       39.27281       61.75199
C         34.05700       37.93016       62.39924
O         33.18382       37.55013       63.34702
O         34.93791       37.16170       62.05495
H         32.70675       40.00858       59.39548
H         34.69429       41.67144       60.64520
H         35.92460       39.51453       61.00051
H         34.79637       38.69201       59.85753
H         32.84945       39.29780       61.38481
H         33.99957       40.06766       62.52042
N         35.72363       40.30945       57.70241
C         36.65953       40.53288       56.62359
H         37.70054       40.47559       57.00388
H         36.52235       39.75624       55.84008
H         36.47969       41.52896       56.16585
H         35.08512       39.51232       57.62340
Ca        32.26243       34.80763       62.84052
O         36.19277       33.31518       64.76518
H         36.48911       33.27951       65.70902
H         37.00602       33.09857       64.24590
O         37.20185       35.69900       63.26866
H         37.23929       36.10589       62.36930
H         38.12498       35.38452       63.43448

Ca 1.0



