%chk=holoCaM.loop1.water2.frame269.chk
%nprocshared=20
%mem=10GB
%nosave
#b3lyp/svp scf=(tight,noincore,xqc) Test 
#IOP(5/87=12) Density=Current Pop=(MK,readradii) iop(6/33=2) iop(6/42=6)

holoCaM.loop1.water2.frame269 

   0  1 
C         20.98516        9.21268       59.65517
C         20.12029        9.33412       58.44333
O         20.44565       10.10640       57.55345
H         21.86804        9.88163       59.57021
H         20.39737        9.50869       60.54920
H         21.33032        8.16451       59.76581
N         18.99148        8.58316       58.33079
C         18.09511        8.71759       57.19580
C         17.38395       10.06387       57.30746
O         16.76488       10.29240       58.33853
C         17.07237        7.55738       57.17386
C         16.38765        7.47718       55.84428
O         16.79315        8.28618       54.85364
O         15.51357        6.65331       55.64442
H         18.77517        7.89565       59.06955
H         18.71331        8.63457       56.27238
H         16.33235        7.68127       57.99487
H         17.59495        6.58673       57.31191
N         17.44868       11.01310       56.32462
C         16.95491       12.37976       56.52239
C         15.63549       12.69844       55.82629
O         15.09296       13.75486       56.12261
C         18.03676       13.42220       56.14688
C         19.42157       13.18745       56.78638
C         19.41083       12.95478       58.30698
C         18.77793       14.09133       59.11698
N         18.74938       13.74198       60.53737
H         17.93259       10.78022       55.45457
H         16.71967       12.51360       57.59819
H         17.67140       14.43012       56.43940
H         18.18109       13.43227       55.04320
H         20.07439       14.05362       56.54087
H         19.87920       12.29176       56.31489
H         20.45869       12.80236       58.64669
H         18.85750       12.02128       58.52234
H         17.73459       14.26628       58.78025
H         19.35617       15.02873       58.96754
H         18.20170       12.86051       60.67718
H         19.72223       13.60866       60.89672
H         18.28581       14.51039       61.07262
N         15.03224       11.85396       54.93974
C         13.67399       12.08147       54.41988
C         12.72682       10.92649       54.77640
O         11.55423       11.01493       54.43988
C         13.65902       12.44405       52.90689
C         14.24273       11.42757       51.97218
O         14.84295       10.35077       52.47665
O         14.23414       11.61459       50.76668
H         15.53675       11.00199       54.66195
H         13.22660       12.97292       54.91208
H         14.22167       13.39245       52.76554
H         12.60502       12.62917       52.60599
N         13.13335        9.85794       55.52630
C         12.23191        8.83527       56.03527
C         11.64104        7.93460       54.97720
O         10.42686        7.80409       54.91727
H         14.10915        9.79192       55.84542
H         11.42836        9.31452       56.63664
H         12.80706        8.17427       56.72056
N         12.45715        7.22067       54.15668
C         11.99737        6.17246       53.24888
C         12.67960        4.83650       53.57281
O         12.54966        3.90376       52.79110
C         12.18438        6.60864       51.78128
C         13.57415        7.03302       51.43603
O         13.77703        8.15006       50.98938
O         14.59915        6.18513       51.59426
H         13.47203        7.39486       54.20856
H         10.90401        5.99284       53.35091
H         11.50088        7.46264       51.58071
H         11.88435        5.77659       51.10832
N         13.34500        4.64132       54.75251
C         13.91897        3.36860       55.15791
C         15.30014        3.07918       54.59570
O         15.83306        2.04029       54.95353
H         13.33924        5.38453       55.46375
H         13.21079        2.54112       54.92614
H         14.04168        3.38256       56.26287
N         15.94655        3.91566       53.72467
C         17.28106        3.61858       53.18705
C         18.23454        4.81197       53.29530
O         17.81734        5.90173       53.64606
C         17.16436        3.14757       51.71705
C         16.42470        1.80331       51.60177
O         16.55405        4.12868       50.91709
H         15.46750        4.76107       53.39685
H         17.74835        2.79409       53.76763
H         18.18124        2.96765       51.30953
H         15.57077        4.03434       51.01435
H         15.38398        1.88119       51.98243
H         16.38658        1.48899       50.53766
H         16.96034        1.02336       52.18297
N         19.56369        4.63690       53.00956
C         20.58159        5.68981       53.04216
C         21.25832        5.77646       51.67108
O         21.87046        4.81752       51.22595
C         21.58909        5.41031       54.20869
C         20.91932        5.82732       55.55059
C         22.93301        6.14739       54.02684
C         21.73969        5.51450       56.80361
H         19.88399        3.68849       52.76735
H         20.11908        6.67985       53.24293
H         21.82838        4.32375       54.21542
H         19.94350        5.30827       55.65568
H         20.72312        6.92424       55.53483
H         22.78768        7.24215       54.01091
H         23.64727        5.88705       54.83240
H         23.43352        5.83065       53.08914
H         22.70687        6.05618       56.81187
H         21.17509        5.84811       57.70059
H         21.92172        4.42287       56.87961
N         21.17187        6.93658       50.95700
C         21.78751        7.18305       49.65106
C         23.27680        7.49078       49.79755
O         23.79366        7.43629       50.89984
C         21.07633        8.39067       48.96697
C         19.58445        8.12325       48.75963
O         21.24556        9.55074       49.73946
H         20.61555        7.69483       51.36293
H         21.63973        6.30159       48.98932
H         21.51594        8.54920       47.95860
H         21.03931       10.32601       49.15454
H         19.07290        7.99983       49.73294
H         19.11895        8.98072       48.23047
H         19.43673        7.20788       48.14921
N         24.01626        7.88199       48.71897
C         25.39769        8.36274       48.80157
C         25.50114        9.59316       49.70162
O         26.31004        9.58932       50.61846
C         25.94776        8.71789       47.39007
C         26.11278        7.47267       46.51291
O         25.09854        9.63753       46.74901
H         23.56024        7.88337       47.79644
H         26.05077        7.56611       49.22454
H         26.95938        9.17008       47.52335
H         25.62464       10.07211       46.02834
H         26.52881        7.76503       45.52508
H         26.82150        6.76424       46.99155
H         25.14301        6.96047       46.34784
N         24.71857       10.68744       49.48124
C         24.80481       11.92977       50.25227
C         24.54121       11.68711       51.72372
O         25.35036       12.08227       52.55159
C         23.78942       12.96774       49.71851
C         24.14003       13.42256       48.29246
C         23.11919       14.43751       47.75937
C         23.44695       14.91267       46.33225
N         24.68081       15.70061       46.27455
H         24.02108       10.62797       48.72595
H         25.82248       12.36888       50.14705
H         23.81091       13.86699       50.37452
H         22.76136       12.54205       49.74775
H         24.15838       12.55550       47.59978
H         25.15253       13.87380       48.32256
H         23.05618       15.31792       48.43537
H         22.12185       13.94529       47.73646
H         22.60647       15.54880       45.97725
H         23.52333       14.03728       45.64934
H         24.82381       16.03508       45.29453
H         24.60432       16.53206       46.90463
H         25.51033       15.12614       46.54190
N         23.41906       11.02906       52.11200
C         23.06051       10.76218       53.50310
C         24.18374       10.00760       54.20318
O         24.54104       10.37073       55.31516
C         21.70489       10.00939       53.57602
C         20.56860       10.85422       52.94673
C         19.21925       10.19743       52.95787
O         19.08049        9.04662       52.58432
O         18.12543       10.95193       53.16403
H         22.81049       10.67755       51.36303
H         22.91589       11.72623       54.04042
H         21.45583        9.79792       54.63947
H         21.79019        9.04501       53.03315
H         20.78683       11.06064       51.88438
H         20.49276       11.83635       53.46189
N         24.85886        9.01636       53.56222
C         26.00467        8.34342       54.13403
H         26.79919        9.08351       54.37224
H         25.71081        7.79717       55.05314
H         26.41915        7.61765       53.40026
H         24.58291        8.76553       52.61024
Ca        15.92388        8.46518       52.83743
O         16.61316        7.25233       49.98177
H         17.22042        6.60112       50.41467
H         16.77138        7.13851       49.01166
O         17.31949       10.15244       50.10361
H         16.93564       10.96221       50.52249
H         16.93564       10.13739       49.19108

Ca 1.0



