%chk=holoCaM.loop1.water2.frame486.chk
%nprocshared=20
%mem=10GB
%nosave
#b3lyp/svp scf=(tight,noincore,xqc) Test 
#IOP(5/87=12) Density=Current Pop=(MK,readradii) iop(6/33=2) iop(6/42=6)

holoCaM.loop1.water2.frame486 

   0  1 
C        -22.07417       82.74003       50.89087
C        -23.50332       82.83943       51.33019
O        -24.37988       83.01394       50.49516
H        -21.66416       81.75054       51.18510
H        -21.98986       82.84988       49.78911
H        -21.48010       83.54013       51.38003
N        -23.81109       82.71937       52.64986
C        -25.17670       82.77485       53.15391
C        -25.77320       84.15823       52.90119
O        -25.28809       85.13496       53.45317
C        -25.17102       82.41924       54.65081
C        -26.52070       82.31030       55.28288
O        -26.58565       82.00239       56.58408
O        -27.54883       82.48073       54.65017
H        -23.03719       82.54716       53.31181
H        -25.76221       81.99057       52.62423
H        -24.57964       83.17735       55.20808
H        -24.67810       81.42983       54.77709
N        -26.79198       84.30417       52.00959
C        -27.31680       85.59904       51.57464
C        -28.25949       86.24517       52.58898
O        -28.60528       87.40495       52.38564
C        -28.00909       85.38678       50.20390
C        -28.51263       86.65203       49.49641
C        -29.02842       86.30189       48.09219
C        -29.57863       87.53997       47.37427
N        -30.03031       87.20278       46.02424
H        -27.10828       83.46343       51.51415
H        -26.44836       86.27283       51.40309
H        -28.86277       84.68372       50.32866
H        -27.25501       84.91194       49.53607
H        -27.68008       87.38291       49.40476
H        -29.34055       87.10636       50.07836
H        -29.83596       85.54042       48.16887
H        -28.19358       85.87332       47.49410
H        -28.78670       88.31875       47.31002
H        -30.43289       87.95243       47.95609
H        -30.77678       86.47111       46.06362
H        -30.41973       88.05980       45.56925
H        -29.22552       86.85422       45.45396
N        -28.76340       85.57836       53.66806
C        -29.82009       86.14069       54.51135
C        -29.77824       85.69704       55.98039
O        -30.66917       86.07303       56.72303
C        -31.19823       85.91334       53.84823
C        -31.58195       84.47840       53.62992
O        -32.66049       84.22618       53.11830
O        -30.75851       83.47011       53.96877
H        -28.53546       84.57964       53.76488
H        -29.70534       87.24743       54.55825
H        -31.19795       86.41388       52.85468
H        -31.98282       86.40057       54.46608
N        -28.72775       84.99152       56.49427
C        -28.56932       84.71229       57.91563
C        -29.52762       83.68643       58.47751
O        -30.18390       83.96334       59.47240
H        -27.94173       84.73735       55.88716
H        -28.62266       85.66156       58.49233
H        -27.55120       84.29292       58.06933
N        -29.58485       82.44164       57.93584
C        -30.27810       81.30344       58.53387
C        -29.29525       80.15497       58.80791
O        -29.73608       79.06342       59.13789
C        -31.47882       80.88675       57.65292
C        -31.18495       80.72641       56.18743
O        -31.79125       81.40294       55.37439
O        -30.28980       79.83044       55.75177
H        -29.05771       82.26836       57.06695
H        -30.72010       81.55992       59.52236
H        -32.25121       81.68131       57.74872
H        -31.92416       79.94870       58.04937
N        -27.94129       80.34723       58.74820
C        -26.93840       79.31855       58.99078
C        -26.84865       78.24449       57.91761
O        -25.96515       77.40726       58.03387
H        -27.57929       81.29290       58.58849
H        -27.10607       78.85464       59.98662
H        -25.94178       79.81398       59.01589
N        -27.71418       78.18109       56.86334
C        -27.65852       77.15995       55.81885
C        -27.70896       77.82682       54.42199
O        -26.91769       78.97359       54.41410
C        -28.83088       76.16836       55.99076
C        -28.74894       75.42214       57.33245
O        -30.07348       76.81533       55.85653
H        -28.46456       78.86742       56.80165
H        -26.70678       76.58944       55.90013
H        -28.76252       75.40035       55.19113
H        -30.24070       77.34277       56.68107
H        -29.58253       74.69405       57.41029
H        -27.78632       74.87317       57.40679
H        -28.82083       76.12831       58.18778
N        -27.40557       76.87860       53.31124
C        -27.15866       77.39879       51.93245
C        -27.97553       76.58214       50.92088
O        -27.88340       75.36390       50.93071
C        -25.63175       77.37793       51.56187
C        -24.82139       78.28911       52.52348
C        -25.41905       77.82263       50.09633
C        -23.31605       78.33768       52.26021
H        -26.70491       76.14893       53.57786
H        -27.49217       78.43861       51.82926
H        -25.25596       76.33497       51.65356
H        -24.93633       77.90611       53.55725
H        -25.21218       79.33002       52.47023
H        -25.96991       77.16650       49.39224
H        -25.75509       78.87000       49.95123
H        -24.35444       77.73954       49.80125
H        -22.83503       78.97644       53.03182
H        -22.88118       77.31838       52.31799
H        -23.08734       78.79167       51.27521
N        -28.75371       77.21263       49.97902
C        -29.57358       76.52152       48.97016
C        -29.04544       76.76377       47.54400
O        -28.00839       77.38377       47.38613
C        -31.06022       76.95005       49.11342
C        -31.62515       76.61406       50.50154
O        -31.23362       78.31097       48.79820
H        -28.76299       78.24224       49.96608
H        -29.53216       75.42233       49.12963
H        -31.68487       76.37009       48.40412
H        -31.00766       78.84982       49.59830
H        -31.54025       75.52416       50.69798
H        -31.06902       77.15805       51.28816
H        -32.69686       76.90158       50.55512
N        -29.71366       76.25090       46.45978
C        -29.23774       76.28847       45.06742
C        -28.90891       77.67759       44.54598
O        -27.81437       77.83746       44.02171
C        -30.23160       75.60714       44.08473
C        -30.40072       74.10302       44.34628
O        -31.47529       76.26519       44.05199
H        -30.59174       75.75338       46.64231
H        -28.29450       75.69877       45.01428
H        -29.79425       75.67999       43.06332
H        -31.98094       76.01848       44.86861
H        -30.84646       73.90448       45.34156
H        -31.06285       73.66353       43.57045
H        -29.41342       73.59656       44.28915
N        -29.78646       78.71893       44.60594
C        -29.43758       80.05518       44.11626
C        -28.21839       80.57604       44.85206
O        -27.25643       80.97985       44.21472
C        -30.59717       81.05986       44.29423
C        -31.79378       80.73668       43.38755
C        -32.88406       81.81280       43.51613
C        -34.05691       81.60496       42.54220
N        -34.77992       80.35713       42.79146
H        -30.70846       78.56324       45.04154
H        -29.20013       80.01263       43.02858
H        -30.22544       82.06872       44.00285
H        -30.91575       81.10339       45.35930
H        -32.20331       79.74243       43.65669
H        -31.44493       80.71048       42.33161
H        -32.43563       82.80422       43.28327
H        -33.26463       81.84242       44.56029
H        -33.68460       81.61984       41.49353
H        -34.76126       82.45778       42.66438
H        -34.17311       79.53113       42.59071
H        -35.11476       80.32600       43.78160
H        -35.60701       80.31313       42.15342
N        -28.19521       80.56962       46.21110
C        -27.07859       81.07979       47.00303
C        -25.76947       80.32181       46.78511
O        -24.74541       80.79823       47.25659
C        -27.42170       80.95778       48.49022
C        -28.62964       81.80148       48.93267
C        -28.95278       81.42705       50.34299
O        -27.94029       81.25939       51.19961
O        -30.06763       81.04245       50.64636
H        -29.02302       80.19016       46.69436
H        -26.91701       82.14716       46.73372
H        -26.54476       81.27122       49.10168
H        -27.61992       79.88197       48.69573
H        -29.52967       81.62512       48.30726
H        -28.35831       82.87083       48.86174
N        -25.72506       79.12339       46.14196
C        -24.51657       78.35051       45.94584
H        -23.61689       78.85581       46.35336
H        -24.62798       77.36753       46.45106
H        -24.36552       78.17777       44.85977
H        -26.59084       78.70792       45.79877
Ca       -28.24508       80.23604       53.12624
O        -32.46763       81.89758       51.60452
H        -32.71401       81.31764       50.84143
H        -32.80966       81.42372       52.40330
O        -31.27333       78.76676       53.30576
H        -30.75326       77.95838       53.54371
H        -32.20239       78.44189       53.19934

Ca 1.0



