%chk=holoCaM-CaMKII.loop3.water2.frame68.chk
%nprocshared=20
%mem=10GB
%nosave
#b3lyp/svp scf=(tight,noincore,xqc) Test 
#IOP(5/87=12) Density=Current Pop=(MK,readradii) iop(6/33=2) iop(6/42=6)

holoCaM-CaMKII.loop3.water2.frame68 

   0  1 
C         79.43155       53.78214       77.86761
C         80.31893       53.12970       78.88852
O         79.97951       52.06519       79.37848
H         78.45085       54.02811       78.32624
H         79.88138       54.72309       77.48338
H         79.27719       53.09354       77.01178
N         81.46504       53.74187       79.28358
C         82.38463       53.21293       80.27891
C         82.22690       54.04755       81.53241
O         83.11642       54.79875       81.90650
C         83.80235       53.20415       79.67035
C         84.89326       52.90517       80.65861
O         85.77048       53.73527       80.83297
O         84.93914       51.76020       81.36369
H         81.68556       54.66943       78.88805
H         82.13770       52.16876       80.57036
H         84.01306       54.20492       79.23347
H         83.84054       52.45707       78.84904
N         81.07059       53.93195       82.24440
C         80.80928       54.65507       83.48090
C         81.83077       54.27889       84.54405
O         82.47028       55.17074       85.08422
C         79.37515       54.38580       84.00369
C         78.28842       54.84705       83.00753
C         76.86584       54.82630       83.59988
C         76.35191       53.45168       84.06539
N         76.25158       52.48962       82.96748
H         80.35251       53.28152       81.89132
H         80.87778       55.74891       83.28299
H         79.24856       54.96677       84.94395
H         79.24196       53.30742       84.23569
H         78.31942       54.23935       82.07988
H         78.49661       55.90096       82.72141
H         76.16257       55.22687       82.83685
H         76.84102       55.51638       84.47108
H         75.33852       53.59974       84.50182
H         77.00145       53.04421       84.86908
H         77.19730       52.27085       82.58186
H         75.83109       51.60444       83.33283
H         75.63335       52.86667       82.21269
N         82.04068       52.97317       84.89087
C         82.96760       52.56311       85.95225
C         84.42725       52.96773       85.71602
O         85.21022       52.87265       86.65100
C         82.85647       51.04652       86.21309
C         83.23628       50.22423       85.00975
O         82.41108       49.49403       84.48471
O         84.48597       50.28016       84.51070
H         81.48333       52.25148       84.40808
H         82.63703       53.08335       86.87922
H         81.80402       50.81817       86.49401
H         83.50249       50.75681       87.06960
N         84.85967       53.45563       84.52084
C         86.18097       54.02180       84.30978
C         87.33172       53.04529       84.41334
O         88.23904       53.30177       85.19240
H         84.20655       53.50207       83.73068
H         86.32859       54.86466       85.02098
H         86.21935       54.45138       83.28769
N         87.40681       51.95504       83.59461
C         88.59978       51.11435       83.48168
C         89.19618       51.11896       82.06514
O         90.29401       50.60039       81.91676
C         88.33995       49.66814       83.96937
C         87.33687       48.86303       83.17341
N         87.14620       47.55575       83.46080
O         86.70102       49.37077       82.26640
H         86.60025       51.74967       83.00176
H         89.39363       51.52598       84.14290
H         88.00755       49.69203       85.02948
H         89.30885       49.12357       83.93156
H         87.67594       47.09993       84.21755
H         86.47918       46.99282       82.91253
N         88.54774       51.65412       80.98166
C         89.11315       51.69628       79.63493
C         88.41918       50.76223       78.65201
O         88.85322       50.70951       77.50981
H         87.60739       52.04404       81.09049
H         90.18141       51.38992       79.64989
H         89.07572       52.74271       79.26463
N         87.41399       49.92669       79.04065
C         86.90982       48.81483       78.23616
C         85.39735       48.77635       78.21694
O         84.78703       48.92615       79.26337
C         87.41725       47.51775       78.89005
C         88.92199       47.46242       78.82855
C         89.68940       47.61720       79.99340
C         89.56949       47.27849       77.59514
C         91.08497       47.59665       79.92331
C         90.96394       47.24596       77.52910
C         91.72714       47.40858       78.69413
O         93.07395       47.38720       78.64401
H         87.08310       49.97529       80.00891
H         87.29272       48.84237       77.19176
H         87.00337       46.61721       78.38513
H         87.06976       47.50181       79.94724
H         89.20921       47.77326       80.95131
H         88.99360       47.15552       76.68574
H         91.66724       47.73019       80.82580
H         91.44862       47.09802       76.57215
H         93.55487       47.25741       77.81413
N         84.72932       48.46730       77.07032
C         83.27878       48.32654       76.99346
C         82.93386       46.88135       76.66851
O         83.39703       46.36730       75.65887
C         82.70138       49.28885       75.91362
C         83.04929       50.75671       76.26696
C         81.17359       49.10491       75.78134
C         82.62852       51.76119       75.19277
H         85.27412       48.28486       76.21275
H         82.80047       48.59294       77.96317
H         83.16772       49.03677       74.93470
H         84.15020       50.85325       76.37793
H         82.57632       51.03514       77.23418
H         80.66745       49.35220       76.73811
H         80.75244       49.73654       74.97598
H         80.92411       48.06299       75.50016
H         82.96075       52.77713       75.49112
H         83.10152       51.50216       74.22148
H         81.52768       51.79534       75.07043
N         82.04479       46.20027       77.44782
C         81.52275       44.87785       77.11209
C         80.08975       45.02691       76.62928
O         79.60195       46.14317       76.57378
C         81.61442       43.94796       78.33591
O         80.83226       44.44951       79.38912
H         81.62823       46.68564       78.25862
H         82.10387       44.42142       76.28153
H         82.67203       43.86559       78.66788
H         81.26143       42.93157       78.04478
H         80.58048       43.67360       79.95524
N         79.35160       43.95511       76.23326
C         77.96279       44.08432       75.79610
C         77.07682       44.60641       76.91652
O         76.24025       45.46030       76.65619
C         77.42358       42.74576       75.29292
H         79.78910       43.02090       76.24141
H         77.91044       44.78315       74.92971
H         77.43084       41.98220       76.09761
H         76.38304       42.87751       74.92267
H         78.04591       42.39074       74.44334
N         77.23144       44.15937       78.19931
C         76.40586       44.61054       79.32304
C         76.48987       46.11037       79.61036
O         75.75536       46.56888       80.47498
C         76.80062       43.84568       80.59453
H         77.95942       43.45017       78.37828
H         75.34759       44.36729       79.08386
H         76.70164       42.75221       80.42923
H         77.85469       44.07248       80.86835
H         76.14323       44.12775       81.44474
N         77.33887       46.93583       78.93661
C         77.42838       48.37056       79.15277
C         76.98637       49.09513       77.89555
O         76.04122       49.86798       77.96722
C         78.86417       48.74833       79.54604
C         79.26950       48.08704       80.86996
C         80.62777       48.54084       81.29412
O         81.62578       47.64959       81.44719
O         80.82460       49.72266       81.52421
H         77.96661       46.54402       78.23382
H         76.75766       48.69623       79.97958
H         78.90874       49.84888       79.66434
H         79.58196       48.44731       78.75055
H         79.26678       46.98124       80.75756
H         78.54945       48.36766       81.66829
N         77.60505       48.87360       76.70154
C         77.19791       49.49086       75.45616
H         76.33991       50.18274       75.58537
H         78.05055       50.05772       75.02875
H         76.90019       48.69687       74.73838
H         78.39471       48.22079       76.65743
Ca        83.51324       50.03612       81.41773
O         84.09870       47.10855       84.15200
H         84.41524       47.40759       85.04150
H         84.16236       46.12156       84.18492
O         84.54441       46.42130       80.83270
H         83.71934       45.87900       80.90119
H         85.20439       45.81524       80.41190

Ca 1.0



