%chk=holoCaM-CaMKII.loop4.water2.frame38.chk
%nprocshared=20
%mem=10GB
%nosave
#b3lyp/svp scf=(tight,noincore,xqc) Test 
#IOP(5/87=12) Density=Current Pop=(MK,readradii) iop(6/33=2) iop(6/42=6)

holoCaM-CaMKII.loop4.water2.frame38 

   -3  1 
C          6.86559       82.38291      103.58694
C          6.68746       82.59372      102.11308
O          7.14446       83.59519      101.58694
H          7.42738       83.22289      104.04621
H          5.86644       82.31644      104.06922
H          7.41568       81.43543      103.76494
N          6.01149       81.66706      101.38481
C          5.72837       81.78688       99.95517
C          4.89312       83.03624       99.69787
O          3.74905       83.09288      100.12611
C          5.04496       80.46797       99.50709
C          4.32248       80.41800       98.18926
O          3.15901       80.05463       98.19622
O          4.90923       80.68642       97.00713
H          5.67666       80.83335      101.89362
H          6.69137       81.88536       99.41355
H          4.27522       80.20836      100.26792
H          5.81226       79.66433       99.53507
N          5.44750       84.11047       99.05339
C          4.75730       85.38631       98.87579
C          3.87827       85.30848       97.63990
O          2.66615       85.40442       97.77464
C          5.77087       86.58500       98.83039
C          6.58566       86.64190      100.15404
C          5.03269       87.91884       98.59246
C          7.65939       87.73315      100.20875
H          6.43448       84.05087       98.76752
H          4.10917       85.56931       99.76388
H          6.48031       86.43292       97.98757
H          7.11877       85.68272      100.28553
H          5.89730       86.78039      101.01673
H          5.74663       88.76314       98.50786
H          4.47169       87.89515       97.63572
H          4.32314       88.12889       99.42084
H          8.21992       87.64285      101.16434
H          8.37641       87.62247       99.37052
H          7.21694       88.74832      100.18020
N          4.42128       85.15413       96.39565
C          3.60812       85.11039       95.17873
C          2.73215       83.85713       95.05775
O          1.96496       83.79032       94.10698
C          4.47464       85.31640       93.91480
C          5.51253       84.25970       93.66419
O          6.21902       84.34339       92.67276
O          5.68399       83.23140       94.51527
H          5.44839       85.13292       96.31230
H          2.92496       85.98944       95.20286
H          4.99262       86.29747       93.99595
H          3.80448       85.36550       93.02830
N          2.73732       82.85552       95.98708
C          1.75014       81.78418       95.98163
C          2.07995       80.58176       95.11111
O          1.27203       79.66348       95.10356
H          3.34265       82.92896       96.81517
H          0.75469       82.19876       95.71401
H          1.63143       81.42104       97.01922
N          3.21765       80.48507       94.36066
C          3.50352       79.32574       93.50405
C          3.79877       78.01627       94.26167
O          4.01226       77.01030       93.59966
C          4.61647       79.66368       92.48341
C          5.94920       79.99199       93.09076
O          6.46080       81.08183       92.89435
O          6.61496       79.06905       93.80096
H          3.86695       81.28385       94.34674
H          2.60115       79.13796       92.88013
H          4.27297       80.53239       91.87879
H          4.75270       78.80882       91.78637
N          3.80872       77.93410       95.62408
C          3.95041       76.68542       96.36522
C          5.36178       76.39677       96.84564
O          5.52479       75.41483       97.55767
H          3.58755       78.76440       96.17337
H          3.56238       75.82674       95.77526
H          3.30163       76.75587       97.26634
N          6.42992       77.17086       96.49910
C          7.79881       76.92957       96.96221
C          8.36987       78.17862       97.60810
O          7.67248       79.18127       97.66155
C          8.69734       76.51246       95.78283
C          8.24090       75.19707       95.14226
C          9.28686       74.68169       94.18638
N          9.66730       75.40302       93.10681
O          9.80956       73.59798       94.40135
H          6.27569       77.96643       95.86942
H          7.82539       76.11385       97.71777
H          9.72643       76.35157       96.16624
H          8.73344       77.31911       95.01931
H          7.27189       75.33933       94.61699
H          8.09744       74.43826       95.94331
H          9.24490       76.32030       92.90560
H         10.39591       75.04278       92.47256
N          9.64085       78.20141       98.11496
C         10.23999       79.40331       98.68478
C         11.50270       79.75515       97.90150
O         12.48946       79.03777       98.00658
C         10.55328       79.19797      100.19498
C         10.99201       80.51651      100.85057
C          9.34356       78.63543      100.95918
H         10.20931       77.34064       98.09888
H          9.52076       80.24688       98.60497
H         11.37439       78.45345      100.29633
H         11.24801       80.34982      101.91844
H         11.88687       80.93026      100.34655
H         10.17229       81.26565      100.79878
H          8.47354       79.32224      100.89267
H          9.05259       77.64343      100.55241
H          9.60671       78.48375      102.02828
N         11.53190       80.83519       97.06917
C         12.72452       81.26081       96.32652
C         13.73874       81.88621       97.28878
O         13.44325       81.95672       98.46687
C         12.26897       82.21990       95.19849
C         13.34271       82.62624       94.22201
N         13.54923       83.93060       93.93360
O         14.00756       81.76971       93.65793
H         10.65638       81.36127       96.93554
H         13.17468       80.37082       95.83283
H         11.77540       83.11496       95.63710
H         11.51322       81.67430       94.60002
H         12.95967       84.65591       94.35933
H         14.27307       84.21467       93.25739
N         14.96141       82.33914       96.88182
C         15.93839       82.92850       97.80146
C         15.41543       84.20332       98.45148
O         15.40711       84.27057       99.67239
C         17.26281       83.23631       97.06866
C         18.29161       83.83984       98.00292
C         18.79354       83.10626       99.09320
C         18.74534       85.15366       97.79684
C         19.72902       83.67989       99.96096
C         19.67749       85.72564       98.66724
C         20.17245       84.99018       99.75334
O         21.07004       85.53132      100.60179
H         15.22752       82.23451       95.89488
H         16.16269       82.18346       98.59793
H         17.05025       83.93631       96.23149
H         17.67773       82.30412       96.62810
H         18.46165       82.09175       99.27395
H         18.37011       85.74109       96.96836
H         20.10772       83.10620      100.79789
H         20.01142       86.74148       98.49775
H         21.39855       86.43564      100.49525
N         15.00191       85.26864       97.70353
C         14.55080       86.52836       98.30485
C         13.40168       86.32343       99.28042
O         13.28403       87.08167      100.23252
C         14.20932       87.59635       97.23597
C         13.06990       87.19547       96.28204
C         12.83302       88.24784       95.23535
O         11.62359       88.82902       95.12261
O         13.72689       88.56332       94.46519
H         15.03230       85.17788       96.67785
H         15.40314       86.92983       98.89619
H         15.12713       87.78186       96.63592
H         13.93366       88.54668       97.74421
H         12.13272       87.02574       96.85203
H         13.33407       86.26285       95.76029
N         12.52445       85.30353       99.10700
C         11.45190       84.98537      100.04180
C         12.02200       84.43307      101.33949
O         11.64661       84.91028      102.40064
C         10.47450       84.01201       99.36187
C          9.78571       84.75433       98.19446
C          8.82311       83.91400       97.43949
O          8.14425       84.41610       96.55820
O          8.65872       82.62332       97.74810
H         12.62618       84.71844       98.26295
H         10.85597       85.89578      100.28032
H          9.69302       83.69052      100.08629
H         11.01241       83.10768       99.00101
H         10.52399       85.14673       97.46689
H          9.21696       85.60669       98.61814
N         12.97317       83.45983      101.32252
C         13.60676       82.90820      102.50193
H         14.69133       83.15112      102.47933
H         13.17387       83.30665      103.44166
H         13.49590       81.80358      102.49592
H         13.30577       83.11564      100.42209
Ca         6.88460       81.66091       96.85960
O          9.23940       83.26669       94.09529
H          8.49576       83.38204       93.45394
H          9.90035       83.95600       93.83521
O          9.40442       80.07255       94.08874
H          9.75484       80.69621       93.40529
H          9.20609       79.24883       93.57824

Ca 1.0



