%chk=holoCaM.loop2.water2.frame211.chk
%nprocshared=20
%mem=10GB
%nosave
#b3lyp/svp scf=(tight,noincore,xqc) Test 
#IOP(5/87=12) Density=Current Pop=(MK,readradii) iop(6/33=2) iop(6/42=6)

holoCaM.loop2.water2.frame211 

   -2  1 
C         20.08371       62.26032      112.99895
C         20.86327       61.40828      113.96651
O         21.78230       60.71926      113.54988
H         19.29072       62.84358      113.51639
H         20.76857       62.98690      112.51018
H         19.60587       61.62957      112.22316
N         20.57865       61.45915      115.29542
C         21.37863       60.80660      116.32652
C         21.12780       59.30477      116.44592
O         19.98981       58.90424      116.64549
C         21.08151       61.48365      117.67512
C         21.92922       60.91602      118.76540
O         21.35113       60.40196      119.86621
O         23.14232       60.90104      118.64709
H         19.82834       62.10169      115.59561
H         22.45224       61.00865      116.11676
H         20.00841       61.37302      117.94194
H         21.30750       62.56740      117.58657
N         22.17932       58.42985      116.42840
C         22.07371       56.99417      116.67003
C         22.95602       56.51772      117.83926
O         22.91090       55.33065      118.13140
C         22.49787       56.25522      115.39383
H         23.11688       58.79885      116.25288
H         21.02129       56.71867      116.89663
H         23.55673       56.48816      115.14385
H         22.39782       55.15595      115.52100
H         21.85792       56.56560      114.54078
N         23.82057       57.34627      118.50792
C         24.79272       56.88018      119.50992
C         24.75638       57.64303      120.84118
O         25.48727       57.24711      121.73960
C         26.21536       56.93323      118.90114
C         26.47236       58.22420      118.17563
O         26.30311       59.41144      118.78085
O         26.71948       58.20015      116.97990
H         23.87249       58.33478      118.23451
H         24.59911       55.81781      119.77592
H         26.30331       56.11395      118.15302
H         26.98670       56.75120      119.67997
N         23.94062       58.71025      121.06936
C         23.83398       59.38365      122.36265
C         25.06694       60.14765      122.84076
O         25.00542       60.67631      123.94195
H         23.31031       59.01689      120.32460
H         23.56462       58.62449      123.12907
H         23.00134       60.11823      122.31245
N         26.21127       60.25703      122.10579
C         27.42300       60.93748      122.58106
C         27.32241       62.47289      122.68953
O         28.32723       63.08851      123.01928
C         28.63400       60.53488      121.70639
C         28.58949       60.99052      120.27364
N         29.62686       60.70556      119.46021
O         27.63518       61.61342      119.83762
H         26.25294       59.77505      121.20183
H         27.66608       60.53901      123.59133
H         28.72646       59.42634      121.71314
H         29.55761       60.95052      122.16416
H         30.44284       60.18004      119.80431
H         29.61680       61.01897      118.48636
N         26.16326       63.15984      122.47255
C         26.03067       64.60359      122.63810
C         26.52946       65.45365      121.47604
O         26.36405       66.66275      121.56262
H         25.29886       62.64130      122.29438
H         26.50549       64.91833      123.59381
H         24.94703       64.83380      122.72432
N         27.12300       64.93011      120.36399
C         27.56187       65.73568      119.21885
C         26.96752       65.22700      117.90555
O         26.29345       64.20652      117.89026
C         29.11448       65.70017      119.12034
C         29.77177       66.43215      120.28893
O         29.58721       64.37677      119.08470
H         27.29224       63.92012      120.32632
H         27.24243       66.79571      119.32923
H         29.46580       66.24205      118.21422
H         29.34676       64.00326      118.19741
H         29.52527       65.94674      121.25506
H         30.87528       66.42786      120.15541
H         29.43261       67.49067      120.31197
N         27.27470       65.87256      116.74135
C         27.01285       65.35417      115.40363
C         28.33529       64.82082      114.87213
O         29.35312       65.49536      114.96084
C         26.38149       66.43753      114.46405
C         24.90743       66.69831      114.88315
C         26.44996       66.00108      112.98386
C         24.13277       67.64093      113.95200
H         27.85714       66.72225      116.79471
H         26.30945       64.49155      115.43409
H         26.97246       67.37724      114.53488
H         24.89547       67.12154      115.90955
H         24.34932       65.73606      114.89734
H         26.08740       66.80090      112.30831
H         27.49651       65.82036      112.66663
H         25.84850       65.09099      112.81760
H         24.01092       67.19456      112.94130
H         23.10749       67.79596      114.34826
H         24.64324       68.62141      113.86435
N         28.36004       63.60617      114.26043
C         29.54318       62.95254      113.72166
C         29.49192       63.00763      112.21538
O         28.57996       63.62233      111.68231
C         29.57824       61.48560      114.19765
C         29.65651       61.38460      115.68751
O         28.76288       61.83944      116.38235
O         30.71013       60.77432      116.26240
H         27.46531       63.12923      114.10722
H         30.47216       63.47319      114.04419
H         30.46261       60.96827      113.77248
H         28.66703       60.95064      113.84838
N         30.45505       62.43343      111.44604
C         30.44349       62.55998      109.99861
C         29.19520       61.92023      109.37495
O         28.51061       62.63984      108.66338
C         31.75867       62.05660      109.36394
C         31.84859       62.47498      107.91980
C         31.82698       61.51809      106.89365
C         31.95692       63.83856      107.58949
C         31.90420       61.92174      105.55742
C         32.03997       64.23635      106.25464
C         32.01159       63.27895      105.23843
H         31.24442       61.94933      111.90212
H         30.41435       63.65288      109.78639
H         31.86291       60.96393      109.44838
H         32.62913       62.49859      109.89659
H         31.74019       60.46404      107.12685
H         31.98473       64.59409      108.36554
H         31.88025       61.18181      104.76895
H         32.12662       65.28729      106.01047
H         32.07377       63.58967      104.20432
N         28.79172       60.61760      109.58918
C         27.63134       60.01628      108.92343
C         26.27921       60.59081      109.32231
O         25.27027       60.12267      108.81169
C         27.69529       58.53595      109.32679
C         29.17849       58.33836      109.57977
C         29.49251       59.61041      110.35596
H         27.79401       60.11019      107.82658
H         27.19306       58.39669      110.31358
H         27.22411       57.84036      108.59908
H         29.42546       57.39694      110.11398
H         29.72068       58.36522      108.60668
H         29.01615       59.54270      111.36102
H         30.56777       59.76553      110.51002
N         26.18021       61.59156      110.23738
C         24.93171       62.15552      110.71975
C         24.73917       63.52576      110.09961
O         23.65897       63.80317      109.59865
C         24.95062       62.20729      112.26315
C         25.28870       60.83391      112.85428
C         25.23123       60.81231      114.34750
O         26.00913       61.60657      115.10208
O         24.51935       59.99665      114.89523
H         27.03408       61.97501      110.65244
H         24.06586       61.52020      110.42432
H         23.95744       62.55174      112.62820
H         25.72309       62.91734      112.60854
H         26.31927       60.54160      112.55927
H         24.58092       60.07426      112.45601
N         25.77730       64.40352      110.01284
C         25.67554       65.67641      109.33944
H         26.67049       66.17352      109.33199
H         25.35868       65.52162      108.28572
H         24.94952       66.32734      109.86571
H         26.69390       64.14848      110.38899
Ca        26.06450       61.06361      117.28068
O         23.72577       63.51865      116.85661
H         23.04159       64.23224      116.90770
H         23.89836       63.40662      115.88858
O         24.63039       62.79059      119.89270
H         24.74784       61.87135      120.24368
H         23.83596       63.13852      120.37066

Ca 1.0



