%chk=holoCaM-CaMKII.loop2.water2.frame365.chk
%nprocshared=20
%mem=10GB
%nosave
#b3lyp/svp scf=(tight,noincore,xqc) Test 
#IOP(5/87=12) Density=Current Pop=(MK,readradii) iop(6/33=2) iop(6/42=6)

holoCaM-CaMKII.loop2.water2.frame365 

   -2  1 
C         39.68004       71.29214       35.69749
C         39.01475       71.06488       37.02536
O         39.47638       70.24441       37.80382
H         40.58143       70.65382       35.58489
H         38.97317       71.08671       34.86801
H         40.00198       72.35602       35.63651
N         37.94681       71.82907       37.37148
C         37.36770       71.84289       38.70846
C         36.59238       70.57845       39.06756
O         35.66339       70.21898       38.35769
C         36.43107       73.05773       38.83738
C         36.02875       73.31480       40.25418
O         36.86023       72.97606       41.25864
O         35.07865       74.04321       40.48360
H         37.62097       72.52808       36.68455
H         38.20379       71.99725       39.42396
H         35.53248       72.91549       38.19858
H         36.94921       73.97678       38.49340
N         36.88049       69.91433       40.22466
C         36.12605       68.77766       40.74750
C         35.52707       69.05263       42.14147
O         34.86426       68.16634       42.66291
C         37.07208       67.57277       40.81831
H         37.67390       70.24878       40.78129
H         35.28581       68.52090       40.06646
H         36.54557       66.67079       41.19580
H         37.47016       67.34645       39.80588
H         37.93012       67.79356       41.49101
N         35.75435       70.21921       42.82338
C         35.33754       70.46412       44.21123
C         34.74420       71.86083       44.46721
O         34.39506       72.13280       45.60815
C         36.54300       70.21293       45.14104
C         37.75574       71.05195       44.86476
O         37.78017       71.98325       43.89662
O         38.77190       70.84760       45.50864
H         36.35942       70.91328       42.38685
H         34.56608       69.72215       44.51382
H         36.85193       69.15234       45.01481
H         36.24595       70.35507       46.20249
N         34.57950       72.78869       43.48014
C         33.97803       74.10583       43.68668
C         34.77921       75.10464       44.52163
O         34.25977       76.18911       44.74421
H         34.80787       72.52664       42.51816
H         32.98086       73.96320       44.15711
H         33.81088       74.58201       42.69813
N         36.01152       74.83303       45.03948
C         36.70527       75.73527       45.97062
C         37.32834       77.00591       45.34875
O         37.94424       77.75982       46.09001
C         37.76041       74.94070       46.77031
C         38.92677       74.46182       45.96453
N         39.91595       73.77706       46.57133
O         38.99440       74.69431       44.77037
H         36.41465       73.90362       44.86713
H         35.96918       76.05587       46.74012
H         37.27079       74.05703       47.23645
H         38.15731       75.58146       47.58603
H         39.87719       73.56184       47.57711
H         40.72707       73.47083       46.03271
N         37.20030       77.32983       44.02900
C         37.72597       78.56021       43.43141
C         39.22341       78.58073       43.12153
O         39.66290       79.55640       42.52996
H         36.61271       76.73645       43.43354
H         37.44317       79.43510       44.05755
H         37.22639       78.69247       42.44808
N         40.06390       77.56581       43.46579
C         41.49095       77.51122       43.12923
C         41.83646       76.18610       42.46707
O         41.26477       75.17350       42.83579
C         42.35117       77.66156       44.40652
C         42.30995       79.09555       44.93512
O         41.91583       76.78583       45.41663
H         39.68342       76.79257       44.01399
H         41.78732       78.33070       42.43607
H         43.42350       77.46470       44.16497
H         42.27912       75.88761       45.20485
H         42.95106       79.18109       45.83804
H         42.70814       79.79236       44.16480
H         41.27486       79.39742       45.19575
N         42.81960       76.10679       41.52197
C         43.28251       74.82985       40.97502
C         44.06210       74.07368       42.04040
O         44.91143       74.66017       42.69798
C         44.13737       75.00217       39.68011
C         43.29385       75.74041       38.60540
C         44.59746       73.61950       39.15845
C         43.96400       75.84607       37.23540
H         43.27935       76.97674       41.21366
H         42.39900       74.23130       40.65621
H         45.05076       75.59827       39.90179
H         43.09007       76.77178       38.96041
H         42.31884       75.22477       38.46316
H         43.72449       72.97573       38.91767
H         45.23921       73.71199       38.26039
H         45.23018       73.10865       39.90653
H         44.96843       76.30899       37.32280
H         44.05098       74.84489       36.76308
H         43.33173       76.46556       36.56623
N         43.87109       72.73585       42.19723
C         44.57581       71.90898       43.17267
C         45.56729       71.01556       42.47098
O         45.65008       71.07301       41.25735
C         43.54346       71.08283       43.95667
C         42.64453       72.00124       44.70907
O         41.97166       72.95632       44.04569
O         42.54894       71.91191       45.92172
H         43.20694       72.26662       41.56767
H         45.16013       72.53715       43.87916
H         44.03415       70.39852       44.67808
H         42.93292       70.46915       43.25355
N         46.40456       70.20078       43.16689
C         47.38843       69.34148       42.51825
C         46.73153       68.25604       41.65771
O         47.13297       68.14639       40.51012
C         48.34465       68.70805       43.54317
C         49.40699       67.87542       42.85704
C         50.41532       68.47703       42.07755
C         49.38322       66.47760       42.98216
C         51.38388       67.68682       41.44611
C         50.34411       65.69295       42.33985
C         51.34608       66.29589       41.57590
H         46.36067       70.21798       44.19904
H         48.02658       69.98158       41.86497
H         47.75759       68.08475       44.24258
H         48.84269       69.49694       44.14891
H         50.45919       69.55348       41.96416
H         48.60925       65.99452       43.56434
H         52.16381       68.15010       40.85425
H         50.30948       64.61588       42.43457
H         52.09149       65.68405       41.08392
N         45.73712       67.40919       42.09980
C         45.15547       66.36661       41.25730
C         44.29397       66.92873       40.13040
O         43.83492       66.15333       39.30256
C         44.35804       65.51304       42.24693
C         43.87950       66.55002       43.23827
C         45.12404       67.41924       43.41286
H         45.95276       65.73615       40.80578
H         43.57315       64.86755       41.79726
H         45.07411       64.86143       42.79783
H         43.09394       67.15396       42.72855
H         43.46011       66.15568       44.18818
H         44.78055       68.41702       43.73768
H         45.83026       66.98119       44.14692
N         44.07928       68.26523       40.00584
C         43.40259       68.89913       38.88508
C         44.44461       69.42007       37.90501
O         44.21243       69.35695       36.70718
C         42.52544       70.04681       39.41452
C         41.45262       69.51391       40.38142
C         40.65159       70.58615       41.04991
O         39.73378       70.22901       41.96487
O         40.84008       71.76718       40.81208
H         44.45937       68.89741       40.71962
H         42.74834       68.17861       38.34454
H         42.03994       70.58655       38.57256
H         43.18296       70.76368       39.94523
H         41.93627       68.93807       41.19649
H         40.76010       68.84190       39.83122
N         45.64611       69.88914       38.34897
C         46.72316       70.35222       37.50666
H         47.61822       69.71846       37.69101
H         46.46602       70.30963       36.43094
H         46.97378       71.39767       37.78537
H         45.84342       69.89785       39.34606
Ca        39.87099       72.56657       43.45302
O         39.61301       74.30921       39.54846
H         39.25301       74.70759       38.71782
H         40.08473       73.49880       39.23674
O         37.93561       75.83876       41.35148
H         37.19478       75.35407       41.79111
H         37.50542       76.64662       40.97593

Ca 1.0



