%chk=holoCaM.loop4.water3.frame88.chk
%nprocshared=20
%mem=10GB
%nosave
#b3lyp/svp scf=(tight,noincore,xqc) Test 
#IOP(5/87=12) Density=Current Pop=(MK,readradii) iop(6/33=2) iop(6/42=6)

holoCaM.loop4.water3.frame88 

   -3  1 
C         86.16794        8.71686       41.49504
C         85.82642        8.18680       40.13290
O         86.65597        8.25579       39.24650
H         87.19395        9.14456       41.50650
H         85.44361        9.49760       41.80247
H         86.13532        7.87963       42.22588
N         84.62089        7.59981       39.91328
C         84.24954        6.90498       38.68197
C         82.97300        7.50392       38.09233
O         81.99621        7.64098       38.81495
C         84.03976        5.42910       39.06419
C         83.52292        4.56937       37.95037
O         84.23571        4.25823       36.83927
O         82.40373        4.09803       38.07475
H         83.95030        7.57525       40.69802
H         85.05912        6.94507       37.92127
H         83.29002        5.40223       39.88806
H         84.97684        4.98851       39.45922
N         82.90320        7.82588       36.76199
C         81.69872        8.36330       36.11488
C         81.07204        7.39758       35.10447
O         79.95531        7.68350       34.68828
C         81.98307        9.72714       35.40005
C         83.07766        9.57877       34.30610
C         82.35227       10.81440       36.42038
C         83.24084       10.79058       33.39038
H         83.73197        7.64979       36.18332
H         80.91193        8.52783       36.88390
H         81.03812       10.04819       34.90577
H         82.83268        8.72065       33.64467
H         84.05071        9.38810       34.78901
H         83.29634       10.56030       36.94652
H         82.47206       11.79936       35.92458
H         81.53886       10.92287       37.16834
H         82.29213       10.99288       32.85066
H         83.55425       11.69185       33.95242
H         84.03124       10.56988       32.63971
N         81.71562        6.29594       34.60956
C         81.12881        5.43473       33.57155
C         81.07763        3.95362       33.93668
O         80.51094        3.18413       33.17439
C         81.88062        5.63172       32.23919
C         83.33056        5.21061       32.24350
O         83.91565        4.68970       33.33915
O         83.98694        5.33577       31.22301
H         82.67866        6.10993       34.91921
H         80.07509        5.73862       33.38759
H         81.82734        6.70777       31.96623
H         81.35861        5.05340       31.44603
N         81.65577        3.47719       35.06944
C         81.63541        2.08297       35.46789
C         82.32363        1.17652       34.47586
O         81.68565        0.24601       34.00413
H         82.12342        4.13309       35.69204
H         80.58292        1.75950       35.62029
H         82.16463        1.97621       36.44009
N         83.64023        1.35185       34.15677
C         84.38481        0.40184       33.32496
C         85.47172       -0.32271       34.11093
O         86.03183       -1.26640       33.56856
C         84.96013        1.04565       32.03689
C         85.94221        2.17515       32.21746
O         86.18568        2.71384       33.42154
O         86.51259        2.63131       31.23985
H         84.13084        2.15681       34.57097
H         83.69798       -0.40229       32.98367
H         84.12908        1.42218       31.40478
H         85.47820        0.24191       31.46784
N         85.83909        0.04859       35.37188
C         86.86166       -0.64318       36.13926
C         88.14374        0.15322       36.22753
O         89.05070       -0.29768       36.91174
H         85.41792        0.87729       35.81256
H         87.12161       -1.62421       35.68761
H         86.45889       -0.84166       37.15597
N         88.31573        1.31537       35.52963
C         89.54784        2.08110       35.52672
C         89.26728        3.50885       36.05467
O         88.50878        4.27459       35.15526
C         90.16100        2.08781       34.10108
C         90.48409        0.66091       33.61799
C         91.15424        0.65055       32.26619
N         90.51785        1.11594       31.16573
O         92.28441        0.19722       32.16132
H         87.55913        1.66592       34.94175
H         90.28538        1.61343       36.21492
H         91.10299        2.67663       34.10662
H         89.45611        2.56892       33.38785
H         89.55483        0.05458       33.55448
H         91.16244        0.18269       34.35841
H         89.55974        1.48894       31.22486
H         90.98383        1.09310       30.24585
N         90.50859        4.18141       36.47777
C         90.56286        5.65103       36.41860
C         91.08790        6.10933       35.05640
O         92.13830        5.66196       34.61851
C         91.42871        6.15874       37.60293
C         91.66211        7.67705       37.54550
C         90.73522        5.82378       38.93887
H         91.39266        3.73622       36.13850
H         89.55419        6.08303       36.58419
H         92.41962        5.65544       37.57262
H         90.69786        8.22546       37.56305
H         92.26901        8.00274       38.41708
H         92.22029        7.95377       36.62783
H         90.53927        4.73507       39.03385
H         91.36209        6.13937       39.79820
H         89.76744        6.36370       39.01478
N         90.40135        7.06350       34.37039
C         90.76505        7.62991       33.07477
C         91.26398        9.05916       33.27907
O         91.31664        9.51056       34.41321
C         89.48517        7.56385       32.19938
C         89.56661        8.16044       30.81851
N         90.41064        7.66033       29.88931
O         88.83820        9.09865       30.52833
H         89.56906        7.45986       34.81841
H         91.59115        7.05244       32.60504
H         88.66787        8.08764       32.74657
H         89.19523        6.49961       32.08960
H         91.02522        6.86440       30.10863
H         90.44294        8.07183       28.94479
N         91.70954        9.81499       32.23241
C         92.18833       11.18952       32.38917
C         91.07737       12.19756       32.69639
O         91.41616       13.34067       32.96990
C         93.00753       11.64850       31.16015
C         92.22333       11.72108       29.87122
C         91.55939       12.90438       29.50522
C         92.18172       10.61700       29.00382
C         90.85974       12.97573       28.29636
C         91.47517       10.68705       27.80200
C         90.81422       11.86439       27.44162
O         90.14728       11.91737       26.27145
H         91.77213        9.36961       31.31223
H         92.90480       11.19406       33.24199
H         93.87226       10.96278       31.02472
H         93.45793       12.64555       31.36485
H         91.59032       13.77415       30.14965
H         92.69692        9.69879       29.25531
H         90.35770       13.89527       28.02345
H         91.44826        9.82514       27.14756
H         89.68707       12.71584       25.97687
N         89.75034       11.86280       32.70809
C         88.69942       12.79523       33.12628
C         88.27996       12.52079       34.56544
O         87.39792       13.19931       35.07311
C         87.46264       12.67618       32.21305
C         87.76464       12.96377       30.74060
C         86.48902       12.96056       29.94474
O         86.13706       13.96530       29.34734
O         85.71908       11.85591       29.89816
H         89.47170       10.88886       32.52252
H         89.06858       13.84343       33.09357
H         86.70340       13.41114       32.56375
H         87.02560       11.65548       32.30507
H         88.45192       12.19123       30.33377
H         88.25220       13.95868       30.65098
N         88.88197       11.53608       35.28134
C         88.53891       11.13222       36.62812
C         89.72860       11.32263       37.56554
O         89.60364       10.98257       38.73428
C         88.14961        9.64466       36.55792
C         86.91271        9.40536       35.66313
C         86.65105        7.94928       35.38493
O         87.36457        7.08309       35.85226
O         85.64953        7.59163       34.56242
H         89.62596       10.99126       34.84811
H         87.68715       11.72285       37.03004
H         87.96510        9.24407       37.56691
H         89.01772        9.10064       36.14076
H         87.06430        9.88284       34.67352
H         86.02176        9.86129       36.14626
N         90.91095       11.86376       37.14169
C         92.03943       12.04076       38.02870
H         92.88586       12.50228       37.47514
H         91.76034       12.71009       38.86945
H         92.36990       11.05713       38.42424
H         91.03596       12.17076       36.16696
Ca        86.36306        4.44101       36.01684
O         86.50620        2.12239       37.95393
H         85.60763        2.48794       38.14494
H         87.13433        2.81108       38.28379
O         87.46729        5.33829       38.45510
H         87.31506        5.43661       39.42646
H         87.54807        6.26455       38.12498
O         86.88094        5.54500       32.87976
H         87.48890        4.89952       32.44027
H         86.42545        6.00490       32.13138

Ca 1.0



