%chk=holoCaM-CaMKII.loop1.water2.frame367.chk
%nprocshared=20
%mem=10GB
%nosave
#b3lyp/svp scf=(tight,noincore,xqc) Test 
#IOP(5/87=12) Density=Current Pop=(MK,readradii) iop(6/33=2) iop(6/42=6)

holoCaM-CaMKII.loop1.water2.frame367 

   0  1 
C         53.05373       78.75661       31.97325
C         53.54614       79.57974       33.12097
O         53.31914       80.77871       33.12797
H         52.52797       79.39427       31.23038
H         53.90996       78.25192       31.48300
H         52.34007       77.99365       32.35203
N         54.18809       78.97892       34.16095
C         54.57749       79.68624       35.37290
C         55.82777       80.56066       35.16071
O         56.93080       80.09954       35.42021
C         54.75837       78.66649       36.52972
C         54.74662       79.36021       37.85768
O         54.55559       80.68907       37.87452
O         54.78837       78.72166       38.89233
H         54.28810       77.95202       34.13152
H         53.70834       80.31655       35.66616
H         55.67007       78.04570       36.38396
H         53.87923       77.98594       36.54444
N         55.72672       81.81482       34.62885
C         56.87946       82.62751       34.22079
C         57.65241       83.30815       35.34813
O         58.71485       83.83320       35.04346
C         56.42777       83.68738       33.19323
C         56.01645       83.00636       31.88037
C         55.43925       83.99965       30.87001
C         55.24295       83.36681       29.48030
N         54.37959       82.18352       29.50642
H         54.78868       82.15385       34.38441
H         57.60662       81.95765       33.70756
H         57.26267       84.38215       32.95284
H         55.59311       84.28437       33.62481
H         55.25440       82.22695       32.07774
H         56.92058       82.52045       31.45149
H         56.13593       84.85751       30.74885
H         54.47123       84.38764       31.25747
H         56.23502       83.08417       29.06266
H         54.79640       84.13392       28.81040
H         54.22433       81.85882       28.52495
H         54.84074       81.40251       30.02634
H         53.45748       82.41143       29.94262
N         57.23056       83.34605       36.64478
C         58.06260       83.89964       37.72899
C         58.50571       82.79756       38.69792
O         59.27378       83.09448       39.60250
C         57.41662       85.13935       38.42466
C         56.10531       84.87415       39.09670
O         55.58841       83.65336       38.97175
O         55.50587       85.75493       39.69257
H         56.32002       82.92272       36.86767
H         59.01479       84.29082       37.31199
H         57.26279       85.93620       37.66449
H         58.12538       85.52723       39.18809
N         58.15040       81.48918       38.51066
C         58.73730       80.37794       39.24012
C         58.43281       80.37144       40.71321
O         59.36876       80.38997       41.50019
H         57.51178       81.22998       37.74863
H         59.83856       80.39094       39.08146
H         58.35252       79.42461       38.81628
N         57.14835       80.29447       41.16148
C         56.81175       80.18128       42.58113
C         56.03669       78.89885       42.90528
O         55.76501       78.67580       44.07685
C         56.10231       81.46981       43.05410
C         54.77629       81.76175       42.42218
O         54.25457       80.97075       41.66097
O         54.15055       82.91789       42.70947
H         56.38917       80.31567       40.46444
H         57.74290       80.12201       43.18379
H         56.77670       82.32330       42.82546
H         55.94907       81.43473       44.15293
N         55.65533       78.00794       41.93929
C         54.97037       76.74999       42.20794
C         53.50944       76.76610       41.79607
O         52.87240       75.72853       41.90105
H         55.85986       78.20586       40.95506
H         54.99240       76.49833       43.28960
H         55.51086       75.94098       41.66970
N         52.88760       77.91894       41.41304
C         51.45278       78.03036       41.17002
C         51.16568       78.69309       39.83167
O         51.95060       79.50951       39.37296
C         50.79086       78.83802       42.31577
C         50.82924       78.07712       43.65258
O         51.37705       80.11006       42.44790
H         53.43338       78.78267       41.37587
H         50.97336       77.02694       41.16012
H         49.71520       78.98606       42.07805
H         52.21865       80.01414       42.96756
H         50.28804       77.11230       43.55538
H         51.87359       77.87061       43.96988
H         50.33357       78.68023       44.44269
N         49.99494       78.41804       39.18651
C         49.58723       79.02377       37.92163
C         48.33153       79.84536       38.17714
O         47.40781       79.34087       38.79956
C         49.31319       77.93176       36.84271
C         50.53169       76.98770       36.67142
C         48.95823       78.60473       35.49557
C         50.24946       75.80132       35.74283
H         49.34444       77.74605       39.62144
H         50.38859       79.68226       37.52304
H         48.44954       77.31785       37.18228
H         50.79788       76.55260       37.65777
H         51.40976       77.55564       36.29426
H         48.69230       77.86285       34.71851
H         48.07660       79.26543       35.59990
H         49.81339       79.21432       35.12837
H         51.13559       75.13368       35.71316
H         49.38246       75.21807       36.12159
H         50.04446       76.12643       34.70365
N         48.21104       81.10336       37.66638
C         47.02847       81.94243       37.85454
C         46.22188       82.00216       36.57247
O         46.62715       81.43084       35.57628
C         47.44460       83.37204       38.30009
C         48.16839       83.37370       39.64889
O         48.22202       84.00477       37.31118
H         48.96116       81.45384       37.05906
H         46.35953       81.50408       38.62651
H         46.53635       83.99387       38.44270
H         49.16246       83.70552       37.40967
H         48.44624       84.41457       39.92339
H         47.51028       82.95840       40.43975
H         49.08896       82.76167       39.58137
N         45.04192       82.68043       36.53682
C         44.25022       82.84410       35.31902
C         45.05176       83.60352       34.27642
O         45.10527       83.18165       33.12949
C         42.93083       83.60844       35.60368
C         42.00040       82.82704       36.53665
O         43.20125       84.87115       36.16018
H         44.71043       83.11948       37.40734
H         43.96712       81.84778       34.90950
H         42.40314       83.72300       34.62547
H         42.50871       85.49677       35.82198
H         41.05187       83.38882       36.67065
H         41.76128       81.83549       36.09710
H         42.45918       82.67652       37.53543
N         45.71740       84.73554       34.63406
C         46.47801       85.57724       33.71721
C         47.54302       84.76762       32.99579
O         47.57927       84.78972       31.77365
C         47.14023       86.75554       34.48054
C         46.16871       87.66071       35.27521
C         45.12297       88.37273       34.40648
C         44.19963       89.23645       35.28047
N         43.21985       89.95419       34.46650
H         45.68830       84.99476       35.62872
H         45.78985       86.00126       32.95456
H         47.69836       87.38690       33.75494
H         47.87468       86.34470       35.20792
H         46.77609       88.43218       35.79687
H         45.64830       87.08071       36.06338
H         44.49664       87.62918       33.87048
H         45.64360       89.01344       33.66225
H         44.80489       89.97278       35.85447
H         43.66360       88.58360       36.00640
H         43.70929       90.60171       33.80703
H         42.63092       89.27794       33.92838
H         42.60103       90.51659       35.09464
N         48.42263       84.00084       33.69868
C         49.46102       83.17864       33.07882
C         48.85386       82.20069       32.08435
O         49.26007       82.21332       30.93052
C         50.28736       82.44049       34.16096
C         51.10269       83.44054       35.00755
C         51.93503       82.77142       36.06507
O         53.14411       82.92634       36.07888
O         51.35552       82.04593       37.03670
H         48.32446       83.98557       34.72333
H         50.16500       83.83275       32.51654
H         50.99982       81.74992       33.66391
H         49.61240       81.83392       34.80289
H         50.43234       84.16300       35.51087
H         51.77352       84.01465       34.33118
N         47.84935       81.35845       32.44823
C         47.19474       80.44213       31.53526
H         46.12036       80.71312       31.45209
H         47.63800       80.46583       30.51766
H         47.27258       79.40817       31.93014
H         47.50439       81.38745       33.41128
Ca        53.96911       82.22967       39.37161
O         51.22946       82.73873       40.99042
H         51.89666       82.51621       41.68272
H         50.40633       82.92342       41.50734
O         52.04362       85.14969       39.01039
H         52.94833       85.12365       39.41023
H         51.52149       85.72647       39.62272

Ca 1.0



