%chk=holoCaM-CaMKII.loop3.water2.frame236.chk
%nprocshared=20
%mem=10GB
%nosave
#b3lyp/svp scf=(tight,noincore,xqc) Test 
#IOP(5/87=12) Density=Current Pop=(MK,readradii) iop(6/33=2) iop(6/42=6)

holoCaM-CaMKII.loop3.water2.frame236 

   0  1 
C         91.34425       17.96660       24.50652
C         91.63947       17.62417       23.07919
O         91.95095       16.47766       22.78707
H         90.29893       18.33377       24.58613
H         91.46028       17.07529       25.15875
H         92.03821       18.76142       24.84961
N         91.53463       18.58404       22.12033
C         91.74733       18.30545       20.70877
C         93.20743       17.90630       20.47304
O         94.10292       18.67203       20.80047
C         91.34723       19.53169       19.85846
C         91.08130       19.15354       18.42822
O         90.01738       19.43870       17.90348
O         91.97991       18.44835       17.73508
H         91.24554       19.53190       22.40872
H         91.05215       17.47977       20.43385
H         92.13291       20.31259       19.93154
H         90.39899       19.96524       20.24612
N         93.50270       16.69669       19.92674
C         94.85792       16.15796       19.72491
C         95.66367       17.09361       18.81919
O         96.74831       17.51724       19.18849
C         94.72355       14.71601       19.12782
C         95.69021       13.57925       19.54684
C         97.09594       13.46507       18.94626
C         98.12698       14.42483       19.53592
N         99.46481       14.11185       19.03041
H         92.69462       16.11819       19.66286
H         95.33822       16.06327       20.72352
H         94.54342       14.73759       18.03087
H         93.79881       14.30733       19.57908
H         95.18278       12.64846       19.19933
H         95.74200       13.51120       20.65605
H         97.05199       13.53881       17.83869
H         97.45192       12.44075       19.20359
H         98.13043       14.33014       20.64515
H         97.87168       15.45765       19.26654
H         99.73658       13.13947       19.30707
H         99.48644       14.19691       17.98825
H        100.15456       14.78006       19.44279
N         95.12815       17.51011       17.63742
C         95.80721       18.35012       16.63982
C         95.28483       19.78615       16.54410
O         95.81379       20.53237       15.73020
C         95.70616       17.67553       15.24403
C         94.28414       17.45696       14.74468
O         93.22482       17.79278       15.51405
O         94.10120       16.93488       13.65791
H         94.17431       17.18857       17.45414
H         96.88362       18.44738       16.90438
H         96.21209       16.68783       15.29311
H         96.25461       18.29621       14.50106
N         94.28599       20.26472       17.33436
C         93.80251       21.63805       17.26955
C         93.14262       22.06228       15.96019
O         92.79580       23.23299       15.88064
H         93.90098       19.66230       18.06700
H         94.66241       22.31718       17.45993
H         93.06270       21.80029       18.08309
N         92.94561       21.22942       14.88888
C         92.41713       21.73155       13.61423
C         90.96862       22.20164       13.68971
O         90.50354       22.76776       12.70953
C         92.54698       20.69382       12.46998
C         91.52593       19.58910       12.55795
N         90.62384       19.37971       11.57048
O         91.50361       18.88294       13.54196
H         93.24709       20.25055       14.94860
H         93.06400       22.59115       13.32972
H         93.57179       20.26431       12.46741
H         92.40264       21.21897       11.50153
H         90.61459       19.96390       10.72260
H         89.92658       18.62573       11.65717
N         90.18240       21.96700       14.78174
C         88.79173       22.37887       14.85212
C         87.83019       21.23466       15.10422
O         86.65091       21.53660       15.22633
H         90.57072       21.48701       15.60549
H         88.46834       22.89775       13.92437
H         88.69015       23.10239       15.68985
N         88.21943       19.92527       15.24985
C         87.26041       18.89317       15.64314
C         87.96245       17.66490       16.28535
O         88.73052       16.96091       15.34439
C         86.22573       18.56527       14.51360
C         86.72200       17.74866       13.33529
C         86.95415       18.35145       12.08692
C         86.90147       16.35685       13.45674
C         87.39085       17.58336       10.99944
C         87.34358       15.59458       12.37507
C         87.59447       16.20617       11.14172
O         88.02345       15.48071       10.08913
H         89.21745       19.67835       15.19519
H         86.68013       19.33499       16.48489
H         85.80510       19.52062       14.13977
H         85.35757       18.02054       14.94290
H         86.80418       19.41531       11.95418
H         86.69737       15.85296       14.39177
H         87.57403       18.05958       10.04469
H         87.48573       14.52793       12.49766
H         88.17879       14.52692       10.15197
N         86.95423       16.75809       16.85542
C         87.48323       15.80293       17.84127
C         86.77312       14.48878       17.59099
O         85.54879       14.45739       17.60539
C         87.25856       16.26637       19.32092
C         87.84926       17.67527       19.57073
C         87.88751       15.23728       20.28621
C         87.62850       18.20577       20.99037
H         86.11024       17.24911       17.23462
H         88.57872       15.66253       17.68783
H         86.16396       16.31447       19.51691
H         87.36551       18.40105       18.88477
H         88.93476       17.65773       19.36076
H         87.66983       15.48286       21.34374
H         87.47530       14.22234       20.11695
H         88.98905       15.20522       20.14649
H         86.54501       18.21931       21.23420
H         88.17159       17.59810       21.74198
H         88.02129       19.24157       21.06216
N         87.48820       13.35425       17.37520
C         86.89582       12.05137       17.11314
C         87.14100       11.13229       18.29596
O         87.67450       11.58594       19.29898
C         87.50497       11.49025       15.81513
O         87.22192       12.34080       14.73474
H         88.51544       13.40279       17.43100
H         85.79375       12.12388       16.97894
H         87.08183       10.49375       15.57669
H         88.60611       11.34822       15.92791
H         87.98279       12.97340       14.65308
N         86.75129        9.82978       18.26988
C         86.97223        8.90027       19.37482
C         88.45367        8.73430       19.67729
O         88.84146        8.88756       20.82620
C         86.36153        7.53533       19.04988
H         86.27161        9.48114       17.42438
H         86.45211        9.27997       20.28414
H         86.50251        6.84328       19.90772
H         85.27104        7.64685       18.86862
H         86.83238        7.09335       18.14647
N         89.34095        8.43869       18.68015
C         90.78013        8.24608       18.89578
C         91.51379        9.47908       19.42898
O         92.71023        9.37596       19.67165
C         91.44072        7.80864       17.58183
H         88.96745        8.32305       17.72607
H         90.90984        7.42251       19.63176
H         92.51919        7.59109       17.73902
H         90.95636        6.88407       17.20260
H         91.34340        8.60770       16.81525
N         90.87761       10.65707       19.67071
C         91.50951       11.83711       20.23306
C         91.07791       11.96354       21.68128
O         91.93534       11.96195       22.55333
C         91.12255       13.07677       19.40274
C         91.61126       12.95499       17.94993
C         91.26022       14.17411       17.14807
O         91.72451       15.38008       17.51675
O         90.57728       14.07563       16.14122
H         89.87771       10.73483       19.48483
H         92.61974       11.74190       20.22511
H         91.56355       13.97846       19.87555
H         90.01921       13.19918       19.40335
H         91.15321       12.06062       17.47338
H         92.71387       12.82981       17.93695
N         89.76035       12.02143       22.02129
C         89.31986       12.04548       23.39854
H         88.20957       12.05716       23.43936
H         89.67762       11.13272       23.92306
H         89.71093       12.94808       23.91153
H         89.04187       12.01518       21.28785
Ca        91.00018       17.24375       15.44853
O         91.09949       15.60938       12.78518
H         91.77947       16.25759       12.47312
H         91.62316       14.81777       13.06700
O         93.73936       14.45746       15.20986
H         93.65945       13.52586       15.53202
H         94.00495       14.36844       14.26056

Ca 1.0



