%chk=holoCaM-CaMKII.loop3.water3.frame30.chk
%nprocshared=20
%mem=10GB
%nosave
#b3lyp/svp scf=(tight,noincore,xqc) Test 
#IOP(5/87=12) Density=Current Pop=(MK,readradii) iop(6/33=2) iop(6/42=6)

holoCaM-CaMKII.loop3.water3.frame30 

   0  1 
C         24.42469       80.92768       30.93502
C         23.67254       82.20981       31.14033
O         22.55910       82.32760       30.64923
H         25.40699       80.94792       31.45363
H         23.83190       80.07937       31.33365
H         24.60693       80.77291       29.85048
N         24.24660       83.23581       31.82729
C         23.61520       84.53055       32.02998
C         24.33484       85.48941       31.09145
O         25.40915       85.98868       31.39238
C         23.69838       84.87561       33.52828
C         23.07908       86.14502       34.06087
O         23.36065       86.44252       35.20968
O         22.22350       86.95669       33.39746
H         25.21285       83.11861       32.17093
H         22.53948       84.48428       31.74749
H         24.78023       84.92189       33.77804
H         23.25695       84.03983       34.11454
N         23.82992       85.62304       29.83781
C         24.39479       86.35920       28.71085
C         24.65562       87.81455       29.05304
O         25.75218       88.27935       28.77392
C         23.43688       86.18074       27.50206
C         23.94052       86.72119       26.15687
C         23.00166       86.24165       25.03084
C         23.45618       86.71643       23.64546
N         22.59583       86.16084       22.59798
H         22.98350       85.08445       29.65497
H         25.36316       85.88784       28.42988
H         22.44523       86.63088       27.72496
H         23.29903       85.08249       27.37355
H         24.95765       86.31994       25.95788
H         23.98654       87.83117       26.18680
H         21.96591       86.60144       25.21885
H         22.99091       85.12837       25.02928
H         24.50271       86.38637       23.46287
H         23.42214       87.82726       23.60523
H         22.91708       86.50918       21.66598
H         22.65518       85.11588       22.60141
H         21.60300       86.45437       22.74641
N         23.73799       88.57214       29.72321
C         23.99945       89.95795       30.12220
C         24.32025       90.09841       31.60856
O         24.58075       91.21555       32.03528
C         22.85974       90.89759       29.66980
C         21.51387       90.64891       30.29979
O         20.57838       91.37676       30.01025
O         21.31824       89.64678       31.17504
H         22.85736       88.12420       30.01491
H         24.91330       90.32910       29.60796
H         22.75080       90.82062       28.56679
H         23.15621       91.94323       29.90807
N         24.41233       89.02070       32.44300
C         24.88344       89.13533       33.81632
C         23.92717       89.84349       34.75506
O         24.33105       90.11470       35.87708
H         24.23824       88.07808       32.07879
H         25.85629       89.67326       33.80226
H         25.08194       88.12664       34.23365
N         22.65083       90.16523       34.39343
C         21.74505       90.91924       35.26041
C         21.39155       90.22168       36.57522
O         20.76946       90.86581       37.40888
C         20.44242       91.27634       34.51076
C         19.55429       90.07179       34.28170
N         18.30527       90.03451       34.79733
O         19.96227       89.12112       33.63319
H         22.33153       89.91545       33.45050
H         22.26658       91.87297       35.49988
H         20.69023       91.75146       33.53651
H         19.88698       92.02923       35.11116
H         17.93420       90.82002       35.35161
H         17.70643       89.21224       34.63955
N         21.72235       88.92106       36.82699
C         21.42039       88.24440       38.07981
C         20.56729       86.99837       37.92062
O         20.32055       86.36419       38.93635
H         22.22752       88.38352       36.11583
H         20.90087       88.92117       38.79139
H         22.38298       87.94359       38.54577
N         20.09279       86.56162       36.71352
C         19.29174       85.33689       36.58049
C         19.17398       84.85602       35.13454
O         19.64267       85.52337       34.22975
C         17.91396       85.47173       37.28253
C         17.11671       86.70982       36.93500
C         16.13880       86.68955       35.92722
C         17.30060       87.88790       37.68292
C         15.36504       87.83040       35.67130
C         16.52893       89.02260       37.42744
C         15.55499       88.99791       36.42137
O         14.79768       90.08547       36.17094
H         20.33699       87.09323       35.86720
H         19.84984       84.51133       37.07567
H         18.06801       85.48883       38.38131
H         17.29416       84.56352       37.12934
H         15.96725       85.79106       35.34822
H         18.03235       87.92787       38.47824
H         14.61073       87.80601       34.89508
H         16.68464       89.91713       38.01817
H         14.89627       90.90735       36.67376
N         18.62406       83.63278       34.86782
C         18.63118       82.98762       33.55348
C         17.20335       82.77160       33.08666
O         16.42081       82.20141       33.83524
C         19.33982       81.59342       33.64367
C         20.77163       81.70013       34.22638
C         19.37081       80.91108       32.25498
C         21.39396       80.32933       34.52601
H         18.22875       83.09102       35.65102
H         19.18167       83.60360       32.80677
H         18.74497       80.95727       34.33754
H         20.73321       82.23895       35.19612
H         21.42912       82.27142       33.53602
H         19.96245       81.51696       31.53544
H         19.79874       79.89159       32.30150
H         18.34870       80.78179       31.85217
H         21.54291       79.72618       33.60870
H         22.38864       80.46433       34.99831
H         20.74627       79.76254       35.23036
N         16.82849       83.10254       31.81587
C         15.51612       82.76826       31.26637
C         15.64565       81.66995       30.21694
O         16.75203       81.25686       29.90961
C         14.83007       84.03030       30.72221
O         15.56342       84.59263       29.66690
H         17.52628       83.52885       31.18672
H         14.86216       82.35207       32.06249
H         14.69253       84.76832       31.54748
H         13.81219       83.78988       30.35127
H         16.13130       85.30801       30.05633
N         14.53285       81.10088       29.67332
C         14.56832       79.96414       28.75155
C         15.29077       80.28934       27.46220
O         16.17653       79.53836       27.07785
C         13.14708       79.49973       28.42588
H         13.61339       81.46031       29.97183
H         15.07807       79.10681       29.24789
H         12.56974       80.30553       27.92592
H         13.18389       78.61194       27.75749
H         12.62561       79.20681       29.36172
N         14.97338       81.40853       26.75207
C         15.63606       81.79512       25.50855
C         17.13725       81.78346       25.66885
O         17.82343       81.21372       24.83130
C         15.18331       83.19735       25.08439
H         14.25559       82.03835       27.14324
H         15.36028       81.08450       24.69804
H         15.67887       83.48893       24.13306
H         14.08470       83.21248       24.92646
H         15.44352       83.94678       25.86376
N         17.70793       82.35260       26.76257
C         19.14374       82.35899       26.99225
C         19.69602       80.94312       27.00197
O         20.57626       80.64728       26.20546
C         19.49605       83.08725       28.29959
C         18.96559       84.53670       28.31426
C         19.63898       85.29457       29.39797
O         20.83324       85.45899       29.32129
O         19.00003       85.80449       30.45741
H         17.08240       82.77731       27.46170
H         19.63171       82.92403       26.16575
H         20.60770       83.09136       28.36380
H         19.10546       82.54954       29.19262
H         17.86898       84.55603       28.45463
H         19.21333       85.05159       27.36134
N         19.19808       80.00236       27.84914
C         19.65872       78.63131       27.83941
H         20.73708       78.58818       28.09823
H         19.08561       78.03453       28.58102
H         19.49800       78.18630       26.83358
H         18.44676       80.25495       28.50169
Ca        20.57936       86.51018       31.91054
O         18.50576       88.52270       29.33441
H         18.83409       88.35009       28.41660
H         17.51969       88.54652       29.24666
O         17.68260       90.56833       31.55045
H         18.61279       90.23376       31.58737
H         17.63000       91.04657       30.68553
O         17.08523       87.47050       32.42839
H         16.28606       87.43497       31.84494
H         16.95918       86.72491       33.06715

Ca 1.0



