%chk=holoCaM.loop2.water2.frame106.chk
%nprocshared=20
%mem=10GB
%nosave
#b3lyp/svp scf=(tight,noincore,xqc) Test 
#IOP(5/87=12) Density=Current Pop=(MK,readradii) iop(6/33=2) iop(6/42=6)

holoCaM.loop2.water2.frame106 

   -2  1 
C         71.04588       28.07896       21.41645
C         70.00768       29.00024       20.83628
O         70.19905       29.49633       19.73689
H         72.00963       28.61492       21.53328
H         70.73639       27.69272       22.41193
H         71.18888       27.20830       20.74172
N         68.86082       29.25158       21.52217
C         67.76185       30.06243       21.00910
C         68.14869       31.52232       20.81487
O         68.59159       32.15212       21.76532
C         66.57615       29.97402       21.98881
C         65.38983       30.73762       21.49273
O         64.87490       31.73360       22.23801
O         64.89548       30.46441       20.41160
H         68.74266       28.79571       22.44087
H         67.42531       29.62697       20.04256
H         66.87697       30.36744       22.98457
H         66.27877       28.91075       22.11039
N         67.93043       32.13638       19.61321
C         68.17849       33.55307       19.36534
C         66.91455       34.32724       18.96785
O         67.03097       35.53419       18.80300
C         69.22104       33.68080       18.24701
H         67.55848       31.57492       18.83742
H         68.58732       34.03609       20.27884
H         70.15600       33.15339       18.53114
H         68.83417       33.23221       17.30507
H         69.46680       34.74733       18.05491
N         65.70270       33.72443       18.74173
C         64.53442       34.45336       18.21925
C         63.22118       34.23802       18.97583
O         62.26419       34.93577       18.66661
C         64.32686       34.09316       16.73702
C         64.05336       32.63075       16.47329
O         64.01674       31.71734       17.47326
O         63.86823       32.27528       15.32366
H         65.64315       32.70627       18.84116
H         64.73447       35.54664       18.25940
H         65.24178       34.38079       16.17448
H         63.48238       34.69380       16.33181
N         63.07564       33.30134       19.95012
C         61.84475       33.11042       20.70608
C         60.64375       32.57539       19.93255
O         59.60921       32.42225       20.56759
H         63.88176       32.72906       20.21039
H         61.56952       34.07420       21.18532
H         62.04490       32.37638       21.51744
N         60.66928       32.24492       18.60382
C         59.49262       31.70489       17.90673
C         59.09197       30.29166       18.36939
O         58.12726       29.76309       17.83351
C         59.66643       31.76323       16.36242
C         60.75802       30.90709       15.78167
N         60.95538       30.86436       14.44458
O         61.46879       30.24607       16.50984
H         61.52790       32.40783       18.06314
H         58.63379       32.38164       18.11216
H         59.86134       32.81597       16.06549
H         58.70976       31.45001       15.89000
H         60.36351       31.41442       13.80614
H         61.69965       30.27366       14.04568
N         59.75279       29.62788       19.36495
C         59.35519       28.32231       19.86941
C         59.99095       27.16424       19.12858
O         59.76719       26.03692       19.54655
H         60.52631       30.08297       19.85803
H         58.24693       28.23034       19.89598
H         59.70365       28.24355       20.92254
N         60.79123       27.34600       18.03660
C         61.44087       26.25484       17.32288
C         62.97919       26.48575       17.25075
O         63.29126       27.44211       16.27524
C         60.80108       26.08523       15.91435
C         59.36580       25.56981       16.01214
O         60.79358       27.30977       15.22001
H         60.93871       28.29200       17.67911
H         61.29572       25.30125       17.87852
H         61.35280       25.30975       15.33493
H         61.47310       27.25534       14.49887
H         58.94740       25.43729       14.99167
H         59.35164       24.58326       16.52406
H         58.72353       26.28028       16.57254
N         63.66590       25.20239       16.99594
C         65.03500       25.25216       16.45514
C         65.03195       25.65021       14.98016
O         64.36047       25.01862       14.17649
C         65.70268       23.85773       16.67917
C         65.93200       23.64964       18.20293
C         67.03029       23.72613       15.91006
C         66.49561       22.27848       18.58002
H         63.09431       24.54132       16.42278
H         65.64013       25.98924       17.02123
H         65.02149       23.06953       16.28757
H         64.96730       23.76697       18.74081
H         66.63167       24.42938       18.58046
H         67.75269       24.48257       16.26708
H         67.46425       22.71438       16.02773
H         66.87296       23.85090       14.81886
H         65.80707       21.47510       18.24596
H         67.50203       22.11319       18.14565
H         66.60423       22.22103       19.68391
N         65.85220       26.65636       14.56424
C         66.05240       27.05434       13.17409
C         67.43356       26.60691       12.73445
O         68.10486       25.93718       13.50199
C         65.92363       28.58377       13.06076
C         64.55848       29.04466       13.45163
O         64.41663       29.87546       14.49206
O         63.57551       28.67986       12.82757
H         66.44587       27.12089       15.26577
H         65.31460       26.56839       12.49867
H         66.10640       28.92587       12.02170
H         66.68119       29.06531       13.72094
N         67.92798       26.91254       11.50232
C         69.24985       26.47443       11.07250
C         70.38050       27.00262       11.96662
O         71.16778       26.17447       12.40470
C         69.53054       26.83331        9.59911
C         70.85716       26.23366        9.18839
C         71.02268       24.83574        9.16290
C         71.94969       27.05911        8.87683
C         72.26102       24.27635        8.84381
C         73.18923       26.49365        8.56009
C         73.34515       25.10433        8.54630
H         67.34407       27.45155       10.84522
H         69.25200       25.36319       11.12972
H         69.53833       27.93388        9.47725
H         68.73070       26.43297        8.93918
H         70.19624       24.17728        9.40012
H         71.84908       28.13701        8.90083
H         72.38029       23.20047        8.83602
H         74.03236       27.13282        8.33454
H         74.30631       24.66831        8.30843
N         70.55962       28.32765       12.29247
C         71.68570       28.82362       13.08582
C         71.63750       28.41601       14.55527
O         72.49667       28.85991       15.30437
C         71.59638       30.34463       12.90932
C         70.10645       30.56404       12.81226
C         69.68786       29.41836       11.89541
H         72.66095       28.48852       12.66892
H         72.12979       30.94883       13.67475
H         72.01727       30.60535       11.91123
H         69.67792       30.38727       13.82458
H         69.78901       31.57014       12.46577
H         68.61459       29.22712       12.07614
H         69.87780       29.66599       10.83079
N         70.70179       27.55205       15.03281
C         70.61446       27.11266       16.41325
C         71.02634       25.65038       16.46901
O         71.95459       25.32683       17.19613
C         69.17922       27.35562       16.92771
C         68.75620       28.82552       16.71571
C         67.34702       29.11560       17.13942
O         66.58600       28.17386       17.72166
O         66.87412       30.22000       16.92918
H         69.99958       27.16715       14.39968
H         71.30972       27.69167       17.06180
H         69.11586       27.08126       18.00365
H         68.47628       26.71236       16.36054
H         68.80965       29.06193       15.63339
H         69.44597       29.50436       17.25859
N         70.42481       24.72457       15.66754
C         70.82976       23.33684       15.57864
H         71.67667       23.09666       16.25291
H         69.97146       22.68143       15.83058
H         71.14328       23.12008       14.53400
H         69.66147       25.01533       15.04963
Ca        63.88190       29.45924       17.19226
O         62.68995       28.92510       20.00544
H         63.25281       28.13882       19.80198
H         62.48018       28.84462       20.96956
O         65.49579       26.70709       20.02349
H         66.17269       27.41698       20.15255
H         65.21522       26.46742       20.94153

Ca 1.0



