%chk=holoCaM-CaMKII.loop3.water1.frame478.chk
%nprocshared=20
%mem=10GB
%nosave
#b3lyp/svp scf=(tight,noincore,xqc) Test 
#IOP(5/87=12) Density=Current Pop=(MK,readradii) iop(6/33=2) iop(6/42=6)

holoCaM-CaMKII.loop3.water1.frame478 

   0  1 
C         75.58921       78.68220       59.15668
C         76.06268       79.52760       58.01427
O         77.25129       79.80730       57.95296
H         74.49653       78.49754       59.09948
H         76.11725       77.70581       59.13280
H         75.81586       79.19528       60.11468
N         75.18471       79.98362       57.07406
C         75.58874       80.79712       55.93051
C         74.96771       82.18697       56.08564
O         74.10687       82.34717       56.94192
C         75.13421       80.05664       54.64339
C         75.92691       80.34202       53.39272
O         76.45512       79.42192       52.79012
O         76.04208       81.57732       52.89846
H         74.18380       79.75172       57.17393
H         76.69444       80.89252       55.93713
H         74.05023       80.23764       54.47702
H         75.25109       78.96421       54.81684
N         75.38763       83.25524       55.34883
C         74.84956       84.60581       55.51846
C         74.22594       85.13627       54.22174
O         73.64804       86.21309       54.23857
C         76.00159       85.49842       56.03415
C         75.54557       86.80537       56.70003
C         76.75491       87.55938       57.27809
C         76.31683       88.74948       58.14196
N         77.47712       89.45117       58.69241
H         76.16156       83.12980       54.68964
H         74.04961       84.58900       56.28926
H         76.73293       85.68798       55.21664
H         76.52778       84.92492       56.83058
H         74.86023       86.53747       57.53433
H         75.00361       87.46148       55.98789
H         77.40456       87.90733       56.44493
H         77.34605       86.87267       57.92379
H         75.68985       88.37447       58.98239
H         75.70843       89.45693       57.53742
H         78.05248       89.85495       57.91815
H         77.14744       90.22717       59.31087
H         78.06220       88.79562       59.26060
N         74.33069       84.43660       53.05359
C         73.82439       84.85960       51.75901
C         72.99965       83.73853       51.11601
O         71.84511       83.98956       50.79948
C         74.99820       85.39995       50.90158
C         76.26171       84.57605       50.88126
O         76.29677       83.48511       50.34949
O         77.38852       85.07190       51.42857
H         74.86048       83.56853       53.04377
H         73.14239       85.73364       51.86842
H         75.28913       86.36998       51.36184
H         74.65509       85.61740       49.86741
N         73.49710       82.47789       50.92488
C         72.73192       81.37359       50.35222
C         73.36813       80.77989       49.10417
O         72.78975       79.85681       48.54857
H         74.44927       82.26377       51.23136
H         71.70288       81.69594       50.08639
H         72.64811       80.57045       51.11587
N         74.53608       81.26001       48.58802
C         75.13516       80.79226       47.34149
C         75.60360       79.33848       47.34598
O         76.03105       78.89977       46.28609
C         76.30375       81.72661       46.93107
C         77.49355       81.71626       47.86660
N         78.54670       82.52678       47.61747
O         77.51570       80.98586       48.84597
H         74.98300       82.05296       49.05141
H         74.35847       80.89000       46.55057
H         75.91309       82.76649       46.87532
H         76.66037       81.44780       45.91601
H         78.54644       83.15351       46.79960
H         79.36267       82.53187       48.24519
N         75.55906       78.52569       48.44871
C         75.96857       77.12833       48.38906
C         77.04911       76.78195       49.38406
O         76.88241       75.81449       50.11246
H         75.19961       78.88048       49.34515
H         76.36477       76.86635       47.38467
H         75.08368       76.47923       48.56403
N         78.21182       77.49052       49.42838
C         79.38170       77.06702       50.20275
C         79.69257       77.99496       51.36457
O         79.04050       79.01175       51.53355
C         80.56875       76.86656       49.22787
C         80.80980       78.06505       48.33019
C         81.31794       79.27444       48.83383
C         80.49122       77.97661       46.96145
C         81.49777       80.37097       47.98170
C         80.65889       79.07701       46.11876
C         81.16176       80.28031       46.62714
O         81.32259       81.35348       45.82655
H         78.28713       78.33523       48.84297
H         79.18460       76.08492       50.68581
H         80.28748       76.00136       48.58787
H         81.50343       76.57756       49.75361
H         81.57679       79.37186       49.87995
H         80.09113       77.05998       46.54624
H         81.89347       81.29693       48.37212
H         80.39295       78.99317       45.07235
H         81.08721       81.33460       44.88760
N         80.65975       77.62572       52.25832
C         80.98090       78.34070       53.48998
C         82.43444       78.76943       53.45800
O         83.30453       77.94150       53.23365
C         80.73193       77.41317       54.72271
C         79.25690       76.94715       54.83116
C         81.18779       78.07033       56.04554
C         78.25528       78.06498       55.12515
H         81.17418       76.74970       52.08342
H         80.34854       79.24479       53.60603
H         81.34635       76.49458       54.59011
H         79.17610       76.20086       55.65164
H         78.95977       76.43730       53.89020
H         80.66638       79.03352       56.22321
H         80.99463       77.38922       56.90139
H         82.27788       78.27509       56.03217
H         78.46854       78.54269       56.09963
H         78.28027       78.83840       54.33799
H         77.23303       77.63746       55.17558
N         82.75850       80.05383       53.77474
C         84.12486       80.54645       53.87494
C         84.47030       80.85947       55.32267
O         83.62477       80.74313       56.19711
C         84.27635       81.80547       53.00536
O         83.47327       82.83969       53.51649
H         81.99923       80.69745       54.01394
H         84.83931       79.77369       53.51941
H         83.99456       81.55136       51.95656
H         85.33061       82.15302       52.99702
H         83.02277       83.27870       52.75210
N         85.73353       81.25871       55.63709
C         86.15191       81.62244       56.98499
C         85.41807       82.85729       57.46680
O         84.91494       82.85021       58.58113
C         87.65996       81.89490       57.00952
H         86.43075       81.30101       54.87912
H         85.97068       80.77223       57.68102
H         87.92719       82.73358       56.33246
H         87.98340       82.14746       58.04257
H         88.21015       80.98487       56.68766
N         85.34521       83.97183       56.68373
C         84.74027       85.22501       57.12751
C         83.24506       85.14400       57.43960
O         82.73054       86.13019       57.94855
C         84.97892       86.31720       56.07612
H         85.79002       83.93845       55.75243
H         85.26424       85.53144       58.06014
H         84.59070       87.29638       56.42843
H         86.06815       86.42759       55.88550
H         84.47502       86.05114       55.12152
N         82.48227       84.03861       57.17801
C         81.05953       83.95124       57.52812
C         80.76594       82.82876       58.51983
O         79.62637       82.73775       58.95693
C         80.18878       83.78249       56.26351
C         80.47145       82.46831       55.52220
C         79.57468       82.30015       54.33842
O         80.08565       82.20571       53.09949
O         78.37167       82.22235       54.49554
H         82.92029       83.23458       56.71379
H         80.73451       84.89329       58.02009
H         80.36773       84.63937       55.57715
H         79.11691       83.80656       56.56364
H         80.31344       81.59720       56.19360
H         81.52003       82.47532       55.18236
N         81.71640       81.93035       58.90871
C         81.46642       80.84689       59.83611
H         82.15051       80.94605       60.70469
H         80.42155       80.83720       60.20937
H         81.66845       79.87968       59.32929
H         82.66628       81.98490       58.53054
Ca        78.67127       81.92047       51.36672
O         81.13519       82.91710       50.14946
H         81.51300       82.95961       51.06068
H         81.32994       83.80303       49.75521

Ca 1.0



