%chk=holoCaM-CaMKII.loop4.water2.frame67.chk
%nprocshared=20
%mem=10GB
%nosave
#b3lyp/svp scf=(tight,noincore,xqc) Test 
#IOP(5/87=12) Density=Current Pop=(MK,readradii) iop(6/33=2) iop(6/42=6)

holoCaM-CaMKII.loop4.water2.frame67 

   -3  1 
C         87.17350       53.92420       59.57967
C         88.55701       53.57301       59.12316
O         89.17713       54.35965       58.42569
H         86.45781       53.15548       59.21998
H         87.14675       53.95635       60.68955
H         86.86638       54.91563       59.18467
N         89.11449       52.39485       59.50788
C         90.46265       51.98312       59.13473
C         90.59122       51.77588       57.63074
O         89.84167       50.98900       57.07047
C         90.84298       50.71887       59.93459
C         92.18623       50.11510       59.60893
O         93.34236       50.80960       59.70875
O         92.22824       48.93708       59.30199
H         88.56018       51.78409       60.12936
H         91.13754       52.78721       59.44797
H         90.06586       49.93910       59.77085
H         90.83719       50.98122       61.01567
N         91.55400       52.44739       56.92530
C         91.74576       52.34327       55.47708
C         93.05523       51.62761       55.12320
O         93.20967       51.28892       53.95782
C         91.67244       53.78378       54.85314
C         90.29538       54.46005       55.07992
C         92.05715       53.86491       53.36304
C         89.12152       53.79855       54.34944
H         92.18976       53.07061       57.44278
H         90.95210       51.70208       55.04025
H         92.42231       54.40886       55.38535
H         90.35468       55.51770       54.74054
H         90.07420       54.48333       56.16154
H         91.41539       53.21151       52.73876
H         91.97088       54.91376       53.00546
H         93.11823       53.58131       53.21213
H         89.27230       53.82197       53.25053
H         88.97730       52.75086       54.67946
H         88.18972       54.35987       54.57079
N         94.02755       51.33487       56.03994
C         95.26239       50.62639       55.68478
C         95.42711       49.31094       56.44582
O         96.47473       48.69066       56.32431
C         96.48945       51.55288       55.81694
C         96.82991       52.02764       57.19769
O         97.82437       52.71730       57.35121
O         96.07861       51.70239       58.26473
H         93.90699       51.62950       57.01795
H         95.25677       50.34480       54.60926
H         96.33155       52.44364       55.16941
H         97.37640       51.00839       55.42483
N         94.40342       48.77126       57.16718
C         94.46308       47.45066       57.77896
C         95.24644       47.36050       59.07765
O         95.27082       46.27229       59.63554
H         93.49347       49.25044       57.17452
H         94.84764       46.71641       57.03835
H         93.42663       47.13636       58.02449
N         95.89057       48.42378       59.64545
C         96.61838       48.31134       60.91509
C         95.70941       48.12075       62.14267
O         96.23952       47.98143       63.23659
C         97.59359       49.49834       61.10659
C         96.97102       50.86072       61.24204
O         97.69292       51.83177       61.39849
O         95.64020       51.03450       61.18675
H         95.90490       49.32048       59.14413
H         97.28027       47.41866       60.84470
H         98.28520       49.52231       60.23591
H         98.20557       49.30884       62.01551
N         94.34774       48.06401       62.04540
C         93.45596       47.79067       63.16532
C         93.15411       48.98062       64.06171
O         92.28170       48.84005       64.90471
H         93.90427       48.12710       61.12211
H         93.81553       46.91514       63.75003
H         92.47161       47.50501       62.73326
N         93.79401       50.17871       63.93716
C         93.42511       51.37776       64.69282
C         93.12001       52.52670       63.74252
O         93.21818       52.36348       62.54155
C         94.54688       51.73987       65.68773
C         94.49215       50.81104       66.91197
C         95.54343       51.16404       67.92814
N         96.85469       50.98493       67.65312
O         95.20707       51.60067       69.01931
H         94.57025       50.26482       63.27288
H         92.48633       51.22041       65.26827
H         94.39571       52.76741       66.08041
H         95.53425       51.71500       65.17646
H         94.60653       49.74620       66.62061
H         93.49034       50.93625       67.38384
H         97.15222       50.59515       66.74729
H         97.57162       51.21696       68.35626
N         92.68505       53.71948       64.24547
C         92.27827       54.86908       63.44062
C         93.14965       56.06834       63.79972
O         93.30771       56.36432       64.97423
C         90.77108       55.14989       63.70998
C         90.28563       56.44243       63.03587
C         89.91224       53.97678       63.20304
H         92.58738       53.81129       65.26645
H         92.38578       54.66960       62.35156
H         90.61019       55.26437       64.80516
H         90.82928       57.31944       63.44018
H         90.42961       56.39519       61.93690
H         89.20746       56.60271       63.24998
H         88.83800       54.16357       63.41572
H         90.03567       53.85051       62.10451
H         90.19704       53.02752       63.70192
N         93.68328       56.84796       62.81046
C         94.48844       58.04556       63.05741
C         93.64262       59.29514       62.86284
O         92.45534       59.17069       62.63498
C         95.73760       58.02817       62.14546
C         95.42468       58.24419       60.67928
N         95.68433       57.28763       59.76734
O         94.95419       59.30592       60.30754
H         93.44625       56.62728       61.83457
H         94.84513       58.05469       64.10999
H         96.26101       57.05994       62.29678
H         96.44552       58.82623       62.45280
H         96.06979       56.38777       60.06562
H         95.49089       57.44830       58.76763
N         94.18555       60.54204       62.95393
C         93.39692       61.76351       62.79203
C         92.76098       61.86336       61.40464
O         91.54390       61.96488       61.32436
C         94.28680       62.99637       63.05778
C         93.51611       64.29050       62.95659
C         92.46052       64.56578       63.84279
C         93.84999       65.23496       61.97226
C         91.75130       65.76617       63.74387
C         93.13857       66.43341       61.87421
C         92.08648       66.70342       62.76114
O         91.39380       67.85697       62.67916
H         95.19018       60.62360       63.16723
H         92.59008       61.75330       63.55846
H         95.12945       62.99270       62.33257
H         94.72754       62.92643       64.07597
H         92.18777       63.85436       64.61212
H         94.65807       65.04313       61.27720
H         90.94088       65.96795       64.43301
H         93.40666       67.15045       61.10880
H         91.59633       68.53175       62.01555
N         93.52562       61.86995       60.27183
C         92.98813       62.04578       58.91493
C         92.02698       60.93013       58.47488
O         91.42444       61.06085       57.41970
C         94.17429       62.19816       57.92733
C         93.77737       62.57543       56.49011
C         94.99830       62.80965       55.64865
O         95.88575       61.81541       55.45279
O         95.18758       63.89823       55.12994
H         94.54791       61.80266       60.39028
H         92.41898       63.00220       58.91109
H         94.76994       61.25837       57.91718
H         94.82168       63.01736       58.31391
H         93.15732       63.49874       56.51159
H         93.19864       61.76345       56.00842
N         91.78417       59.83760       59.24766
C         90.81077       58.80489       58.91999
C         89.53393       59.08391       59.69083
O         88.48987       59.20194       59.06402
C         91.42227       57.42146       59.21721
C         92.47239       57.05969       58.14982
C         93.16492       55.75591       58.42204
O         93.73543       55.17521       57.51328
O         93.25668       55.26488       59.67021
H         92.25887       59.74538       60.15118
H         90.52446       58.82940       57.84339
H         90.63089       56.64059       59.18508
H         91.86173       57.42494       60.23733
H         93.23804       57.85152       58.01963
H         91.92016       56.95527       57.18888
N         89.54691       59.27448       61.03691
C         88.38110       59.65106       61.80916
H         87.46308       59.71636       61.18902
H         88.21595       58.91032       62.61690
H         88.55951       60.64757       62.26821
H         90.43127       59.19665       61.54105
Ca        93.38375       53.04833       59.95106
O         95.90323       54.20078       62.49167
H         96.77808       54.58816       62.23741
H         96.11328       53.59179       63.24346
O         97.09982       54.25322       59.51085
H         96.72129       54.65524       58.68761
H         97.88146       54.82105       59.72726

Ca 1.0



