%chk=holoCaM-CaMKII.loop4.water2.frame213.chk
%nprocshared=20
%mem=10GB
%nosave
#b3lyp/svp scf=(tight,noincore,xqc) Test 
#IOP(5/87=12) Density=Current Pop=(MK,readradii) iop(6/33=2) iop(6/42=6)

holoCaM-CaMKII.loop4.water2.frame213 

   -3  1 
C         43.98179       54.46966       33.11154
C         44.80527       53.82951       32.03383
O         44.58878       52.67140       31.70983
H         43.22084       53.76407       33.50478
H         44.64384       54.78995       33.94380
H         43.46462       55.36291       32.69975
N         45.77342       54.55547       31.41828
C         46.60951       54.04158       30.34101
C         47.51375       52.92441       30.84630
O         48.16624       53.11213       31.86441
C         47.46929       55.18997       29.78619
C         48.18708       54.84011       28.51794
O         48.93476       55.66257       28.02885
O         47.98852       53.66687       27.88579
H         45.89742       55.53645       31.71775
H         45.95046       53.69166       29.51428
H         48.20530       55.50694       30.55784
H         46.81861       56.05944       29.54654
N         47.64762       51.76039       30.14652
C         48.50731       50.65856       30.57019
C         49.73624       50.58905       29.66508
O         50.83741       50.78228       30.16211
C         47.69331       49.32472       30.58752
C         46.41045       49.40991       31.45771
C         48.55701       48.11759       30.99032
C         46.64954       49.68161       32.94458
H         47.14349       51.66617       29.25583
H         48.88793       50.84557       31.59807
H         47.34151       49.11738       29.55758
H         45.84858       48.45443       31.36310
H         45.75332       50.21142       31.06110
H         48.97361       48.23710       32.01026
H         47.94831       47.18790       30.95220
H         49.39992       47.98816       30.27961
H         45.67180       49.71254       33.47021
H         47.25933       48.87826       33.40490
H         47.14781       50.66016       33.09534
N         49.63388       50.29077       28.33742
C         50.79745       50.14270       27.45553
C         51.50325       51.46107       27.10077
O         52.51317       51.40165       26.41282
C         50.41946       49.33155       26.19637
C         49.30617       49.93815       25.39241
O         49.44067       51.16083       24.84729
O         48.27246       49.31109       25.22383
H         48.69964       50.07613       27.96547
H         51.54731       49.50816       27.98030
H         50.10346       48.31622       26.52840
H         51.31279       49.20094       25.54834
N         51.08241       52.67116       27.56743
C         51.81974       53.91355       27.36759
C         51.81412       54.44096       25.94569
O         52.88165       54.65537       25.38982
H         50.25589       52.71567       28.17432
H         52.86251       53.78209       27.73153
H         51.35567       54.70222       27.99519
N         50.63833       54.73718       25.32418
C         50.53399       55.40216       24.01983
C         49.67659       56.68705       24.10731
O         49.36638       57.25634       23.07025
C         50.02455       54.39762       22.94842
C         48.64232       53.87571       23.19231
O         48.13418       53.06274       22.43801
O         47.96271       54.34532       24.23862
H         49.76936       54.49473       25.81950
H         51.53817       55.71095       23.65515
H         50.72728       53.53727       22.91771
H         50.03795       54.88883       21.95098
N         49.31099       57.23012       25.31199
C         48.61093       58.50252       25.47375
C         47.08918       58.42335       25.48718
O         46.47514       59.46921       25.64314
H         49.70295       56.82130       26.16419
H         48.95892       59.22707       24.70592
H         48.89754       58.92736       26.46093
N         46.40595       57.25419       25.32780
C         44.94399       57.16292       25.27647
C         44.36430       56.19531       26.36191
O         45.19683       55.15088       26.77575
C         44.51085       56.85306       23.81419
C         44.69499       58.10747       22.93304
C         44.17830       57.92211       21.52975
N         44.77885       57.06554       20.67412
O         43.21643       58.57608       21.15246
H         46.94172       56.39329       25.17483
H         44.45962       58.13222       25.52513
H         43.42609       56.62363       23.77224
H         45.06429       55.98051       23.40910
H         45.75926       58.41897       22.89236
H         44.11133       58.93409       23.39896
H         45.60561       56.52497       20.96426
H         44.42710       56.96228       19.71021
N         43.01747       55.72098       26.01810
C         42.40444       54.72958       26.92090
C         41.45301       53.90828       26.06914
O         40.57459       54.47024       25.42972
C         41.68718       55.38568       28.14168
C         41.00038       54.31920       29.01580
C         42.67292       56.17003       29.02517
H         42.36889       56.52874       25.86505
H         43.17407       54.03587       27.32381
H         40.90473       56.08763       27.77833
H         41.74221       53.58835       29.40474
H         40.48973       54.79871       29.87826
H         40.22696       53.77228       28.43948
H         43.12630       57.01438       28.47061
H         42.14419       56.60798       29.89814
H         43.48041       55.50276       29.39999
N         41.57791       52.55355       26.03069
C         40.74010       51.66961       25.23143
C         39.66080       51.08976       26.12927
O         39.66726       51.38660       27.31586
C         41.66569       50.58078       24.62920
C         41.01686       49.65920       23.63319
N         40.54505       50.13825       22.46020
O         40.95047       48.46206       23.86945
H         42.26103       52.11229       26.65662
H         40.24345       52.24814       24.42310
H         42.08668       49.98011       25.46534
H         42.51715       51.07071       24.10930
H         40.62087       51.14025       22.23359
H         40.12307       49.50189       21.76801
N         38.66182       50.29881       25.64277
C         37.65549       49.72879       26.53200
C         38.28819       48.67612       27.42874
O         37.96687       48.62094       28.60678
C         36.46937       49.11651       25.76220
C         35.33806       48.81786       26.72678
C         34.70021       49.87556       27.40595
C         34.92135       47.50086       26.97486
C         33.67912       49.62058       28.32219
C         33.89730       47.24762       27.89672
C         33.27579       48.30798       28.57515
O         32.29437       48.07972       29.47104
H         38.59941       50.12251       24.62999
H         37.24556       50.56212       27.14323
H         36.81096       48.20620       25.22177
H         36.08618       49.83867       25.00890
H         34.99448       50.90301       27.23059
H         35.39682       46.67091       26.46850
H         33.20498       50.44616       28.83928
H         33.59111       46.22735       28.08771
H         31.98786       47.18729       29.68441
N         39.21365       47.80734       26.92431
C         39.91611       46.81489       27.73663
C         40.82887       47.45077       28.78971
O         41.33721       46.71115       29.61957
C         40.77124       45.88755       26.84414
C         39.92045       45.05958       25.86818
C         40.79886       44.23659       24.97017
O         41.64040       43.32413       25.49279
O         40.75452       44.39211       23.76005
H         39.42904       47.86652       25.91887
H         39.15553       46.19563       28.26403
H         41.34142       45.17661       27.48324
H         41.50027       46.51031       26.27851
H         39.29078       45.72300       25.23924
H         39.24814       44.38430       26.44053
N         41.07323       48.79674       28.83399
C         41.87583       49.44184       29.87217
C         41.00008       50.29313       30.78873
O         41.49639       50.73552       31.81605
C         42.97214       50.33132       29.24390
C         43.84014       49.58453       28.22033
C         44.88053       50.47866       27.60318
O         46.17109       50.11169       27.61805
O         44.56404       51.51322       27.04057
H         40.66820       49.39934       28.11619
H         42.35317       48.66546       30.50828
H         43.61237       50.75037       30.04876
H         42.47529       51.17990       28.72787
H         43.19397       49.20746       27.40239
H         44.33875       48.71811       28.70489
N         39.69735       50.56958       30.48701
C         38.79868       51.32276       31.33242
H         37.90653       50.69682       31.55157
H         39.26750       51.61899       32.29161
H         38.46411       52.23291       30.79135
H         39.29606       50.25172       29.60416
Ca        45.92399       54.01129       24.99933
O         45.43865       50.58149       24.34806
H         46.40182       50.71971       24.16819
H         45.22187       49.72185       23.90785
O         44.40173       52.87847       22.67363
H         44.10834       53.74936       23.04179
H         45.37878       52.97687       22.54561

Ca 1.0



