%chk=holoCaM.loop4.water3.frame205.chk
%nprocshared=20
%mem=10GB
%nosave
#b3lyp/svp scf=(tight,noincore,xqc) Test 
#IOP(5/87=12) Density=Current Pop=(MK,readradii) iop(6/33=2) iop(6/42=6)

holoCaM.loop4.water3.frame205 

   -3  1 
C         21.90692       52.35774       53.49775
C         23.32278       51.87118       53.45670
O         23.57300       50.80621       54.00100
H         21.59002       52.50985       54.55043
H         21.78202       53.30213       52.93149
H         21.25361       51.58290       53.03856
N         24.30839       52.58179       52.82617
C         25.65913       52.04850       52.67105
C         26.63070       53.08343       52.09658
O         26.37553       53.58631       51.01049
C         25.59993       50.84366       51.69695
C         26.90970       50.13679       51.56618
O         27.03589       49.23310       50.75637
O         27.93595       50.46188       52.36711
H         24.08041       53.50488       52.42661
H         26.02844       51.72689       53.67023
H         25.28511       51.21191       50.69614
H         24.85906       50.08706       52.02319
N         27.79322       53.40413       52.75290
C         28.80062       54.32412       52.20634
C         30.19387       53.68347       52.01744
O         31.05079       54.36155       51.46780
C         28.91803       55.60619       53.09528
C         29.51266       55.29480       54.49626
C         27.55153       56.30958       53.20140
C         29.77116       56.53302       55.35660
H         27.96502       52.97941       53.67455
H         28.47937       54.65680       51.19507
H         29.61428       56.30559       52.58021
H         30.49268       54.78737       54.37222
H         28.83930       54.62033       55.05366
H         27.15175       56.52532       52.18846
H         26.82074       55.67622       53.74875
H         27.63963       57.28098       53.72848
H         30.24916       56.22183       56.31005
H         30.45422       57.23363       54.83150
H         28.82708       57.05399       55.61295
N         30.52035       52.44154       52.49830
C         31.89027       51.88844       52.48879
C         32.02703       50.48873       51.86580
O         33.14632       49.99860       51.80290
C         32.42286       51.86036       53.94382
C         31.61186       50.97250       54.85738
O         30.61141       50.22577       54.34621
O         31.82447       50.97895       56.05789
H         29.79191       51.91911       52.98897
H         32.56139       52.56221       51.91267
H         32.37268       52.90080       54.33545
H         33.48794       51.54275       53.96930
N         30.96124       49.78332       51.39177
C         31.06273       48.47079       50.75929
C         31.47027       47.29135       51.64756
O         31.57978       46.20457       51.09738
H         30.03786       50.22200       51.40142
H         31.78149       48.54718       49.91495
H         30.07192       48.21501       50.32571
N         31.73234       47.39103       52.98585
C         32.24662       46.26316       53.77642
C         31.29272       45.07130       53.94641
O         31.76440       44.02916       54.37875
C         32.76874       46.73536       55.15556
C         31.73620       47.33514       56.07428
O         30.57252       47.45949       55.73237
O         32.11397       47.75525       57.29578
H         31.66408       48.30975       53.43206
H         33.13534       45.87958       53.22727
H         33.55804       47.50005       54.99278
H         33.23439       45.87233       55.67873
N         29.96197       45.13951       53.65949
C         29.04920       44.00106       53.74103
C         27.98200       44.12857       54.81609
O         27.11904       43.26139       54.86102
H         29.57451       46.03086       53.35242
H         29.59398       43.05336       53.94121
H         28.55545       43.89486       52.75181
N         28.00588       45.11305       55.75915
C         27.05931       45.19253       56.87517
C         26.52757       46.60581       57.04842
O         26.96742       47.48987       56.32695
C         27.74512       44.67058       58.15699
C         29.01330       45.45232       58.55198
C         29.71229       44.86794       59.75522
N         30.86067       45.42817       60.19802
O         29.26169       43.88532       60.32715
H         28.78113       45.78615       55.74015
H         26.18471       44.53090       56.68690
H         28.02798       43.61023       57.97304
H         27.02426       44.68402       59.00260
H         28.74797       46.50954       58.76635
H         29.74304       45.42652       57.71741
H         31.25930       46.25180       59.72386
H         31.35638       45.03384       61.01104
N         25.59216       46.90228       58.00135
C         25.06453       48.25004       58.19953
C         25.53201       48.76148       59.55088
O         25.07140       48.26944       60.57326
C         23.50852       48.26561       58.08788
C         22.93936       49.68797       58.24068
C         23.02802       47.67685       56.75299
H         25.24990       46.15133       58.62151
H         25.46458       48.92933       57.41529
H         23.08496       47.63284       58.90017
H         21.82922       49.66605       58.18488
H         23.21041       50.12130       59.22355
H         23.32107       50.35406       57.43711
H         23.40627       48.27581       55.89920
H         23.36971       46.62663       56.64070
H         21.91645       47.67007       56.71776
N         26.48128       49.73850       59.62496
C         26.94648       50.31242       60.88760
C         25.84625       51.17152       61.49548
O         24.83322       51.37243       60.85011
C         28.23163       51.13701       60.61973
C         28.86812       51.75986       61.83441
N         29.29370       50.99449       62.86624
O         29.01748       52.97153       61.87907
H         26.90295       50.07092       58.74605
H         27.20071       49.47881       61.57795
H         28.00413       51.93158       59.87444
H         28.99051       50.45857       60.18555
H         29.18371       49.97059       62.84577
H         29.73048       51.42973       63.69212
N         25.95769       51.69007       62.74933
C         24.93134       52.53615       63.35157
C         24.80776       53.86406       62.61850
O         23.69797       54.24934       62.27988
C         25.16123       52.68265       64.87292
C         26.38838       53.44055       65.31805
C         26.38287       54.84489       65.34604
C         27.52290       52.75125       65.77905
C         27.49195       55.54622       65.82808
C         28.63729       53.45499       66.24466
C         28.62496       54.85296       66.27573
O         29.70064       55.51735       66.74375
H         26.77829       51.43783       63.31407
H         23.95574       52.00265       63.28358
H         25.20848       51.64742       65.27827
H         24.27403       53.15109       65.35203
H         25.51205       55.39695       65.01497
H         27.54682       51.66861       65.77761
H         27.46834       56.62833       65.85418
H         29.50694       52.91188       66.59246
H         29.72632       56.48361       66.79416
N         25.91524       54.59401       62.29821
C         25.86384       55.85642       61.55847
C         25.17080       55.66565       60.21514
O         24.30049       56.45458       59.87617
C         27.27616       56.46766       61.36357
C         27.94798       56.79616       62.71138
C         29.23532       57.55019       62.54521
O         29.23934       58.65226       62.02006
O         30.38653       57.03420       63.01736
H         26.83291       54.21336       62.56784
H         25.28071       56.60155       62.14384
H         27.15671       57.41840       60.79723
H         27.93046       55.78953       60.77160
H         28.16384       55.85649       63.25527
H         27.26613       57.42052       63.32836
N         25.47128       54.59680       59.42912
C         24.81121       54.30238       58.15428
C         23.30909       54.13472       58.32056
O         22.56562       54.70641       57.53549
C         25.43453       53.04194       57.51139
C         26.89084       53.34567       57.12858
C         27.64054       52.20457       56.52825
O         28.79587       52.39437       56.18450
O         27.11906       50.97314       56.38082
H         26.18509       53.93997       59.78020
H         24.97672       55.14141       57.44077
H         24.88194       52.77923       56.58064
H         25.37240       52.18000       58.21140
H         27.47211       53.66800       58.01529
H         26.88874       54.17831       56.39219
N         22.79291       53.39582       59.33869
C         21.37600       53.19633       59.56186
H         20.75250       53.65378       58.76622
H         21.16240       52.10752       59.59506
H         21.09116       53.64434       60.53761
H         23.43197       52.97927       60.01721
Ca        28.65405       49.74496       55.31317
O         29.42752       49.64975       57.94512
H         30.11392       50.34159       57.77741
H         29.93658       48.83988       58.19079
O         28.07246       47.78287       53.05975
H         28.72166       47.91805       52.32646
H         27.44856       47.09725       52.71290
O         25.78950       48.57181       54.21054
H         25.61965       49.48477       54.54717
H         24.91145       48.22588       53.91750

Ca 1.0



