%chk=holoCaM.loop2.water1.frame44.chk
%nprocshared=20
%mem=10GB
%nosave
#b3lyp/svp scf=(tight,noincore,xqc) Test 
#IOP(5/87=12) Density=Current Pop=(MK,readradii) iop(6/33=2) iop(6/42=6)

holoCaM.loop2.water1.frame44 

   -2  1 
C          7.35515       94.33018       17.84341
C          7.32363       95.80788       17.59065
O          7.56381       96.23530       16.47074
H          8.11422       94.10662       18.62308
H          6.35957       93.99144       18.20024
H          7.61667       93.77340       16.91919
N          7.03318       96.65520       18.61371
C          6.98797       98.10510       18.47110
C          8.34177       98.64389       18.02105
O          9.32045       98.47944       18.73524
C          6.54048       98.72664       19.81135
C          6.54771      100.22261       19.80613
O          5.88372      100.84414       18.99833
O          7.28609      100.88554       20.71292
H          6.82852       96.23886       19.53632
H          6.21810       98.36114       17.71416
H          7.21382       98.38188       20.62514
H          5.50962       98.37548       20.04063
N          8.45119       99.30074       16.82788
C          9.69242       99.85669       16.29406
C          9.61942      101.37496       16.10014
O         10.61238      101.95486       15.68348
C          9.99506       99.17504       14.95642
H          7.60570       99.40279       16.25327
H         10.53540       99.65073       16.98832
H         10.95738       99.54001       14.53904
H         10.06954       98.07596       15.09942
H          9.18521       99.38361       14.22365
N          8.49104      102.08273       16.39746
C          8.35864      103.53934       16.29262
C          8.11850      104.17811       17.66073
O          7.99271      105.39329       17.72665
C          7.25409      103.92480       15.26996
C          5.87510      103.36712       15.54404
O          5.66733      102.56923       16.60633
O          4.96665      103.58409       14.75936
H          7.68665      101.56243       16.75434
H          9.30422      103.98521       15.91190
H          7.57297      103.54979       14.27291
H          7.19085      105.03342       15.20558
N          8.11719      103.43387       18.80420
C          8.04131      103.99417       20.14047
C          6.68787      104.51392       20.57461
O          6.59880      104.85997       21.74540
H          8.28915      102.42143       18.75468
H          8.81686      104.78040       20.26576
H          8.29303      103.18386       20.85673
N          5.59107      104.61207       19.75871
C          4.32006      105.09985       20.30062
C          3.67011      104.07999       21.23466
O          2.73049      104.43856       21.93019
C          3.34304      105.60289       19.21705
C          2.71720      104.52930       18.36844
N          1.37394      104.36210       18.35998
O          3.41723      103.82291       17.66529
H          5.66827      104.38276       18.75910
H          4.56131      106.01077       20.89342
H          3.86962      106.32790       18.55956
H          2.53051      106.15882       19.73332
H          0.75888      104.95251       18.93807
H          0.93985      103.64411       17.76744
N          4.10258      102.78578       21.28489
C          3.60017      101.79634       22.21957
C          2.71120      100.75929       21.57202
O          2.42165       99.77869       22.24317
H          4.83906      102.46795       20.64237
H          3.03571      102.25841       23.05725
H          4.48462      101.29142       22.66931
N          2.17560      100.91929       20.32116
C          1.28677       99.92495       19.71586
C          1.80525       99.50389       18.31651
O          3.19447       99.39227       18.35986
C         -0.16303      100.46712       19.64989
C         -0.72254      100.74260       21.05068
O         -0.20043      101.64263       18.88597
H          2.36398      101.78400       19.79280
H          1.26868       99.00556       20.34273
H         -0.81409       99.69552       19.18427
H         -1.14195      101.77323       18.59859
H         -1.77482      101.08990       20.97423
H         -0.70774       99.81158       21.65707
H         -0.13133      101.52487       21.57117
N          1.21605       98.20699       17.94173
C          1.78542       97.52616       16.76052
C          1.03209       97.91144       15.48954
O         -0.15821       97.64461       15.39563
C          1.72675       95.99004       17.01968
C          2.58711       95.63365       18.26508
C          2.19257       95.18792       15.78826
C          2.42475       94.18592       18.73283
H          0.17254       98.21829       17.91259
H          2.85769       97.78357       16.63706
H          0.66688       95.71981       17.22763
H          2.28401       96.26908       19.12436
H          3.66076       95.83728       18.05393
H          3.24469       95.43320       15.53108
H          2.10328       94.09747       15.95779
H          1.54567       95.40611       14.91781
H          3.04048       94.02346       19.64267
H          1.36184       93.98698       18.98773
H          2.76293       93.46085       17.96721
N          1.68289       98.51821       14.45478
C          1.05291       98.80414       13.16505
C          1.05009       97.55909       12.28766
O          1.60163       96.54817       12.68538
C          1.84461       99.90854       12.42967
C          1.84687      101.20208       13.18192
O          0.79843      101.79462       13.37969
O          3.00716      101.73304       13.60995
H          2.67773       98.75454       14.57274
H          0.01063       99.15902       13.32564
H          1.39169      100.12210       11.44242
H          2.89183       99.56656       12.27191
N          0.46763       97.57023       11.05525
C          0.55888       96.45326       10.11554
C          2.00400       96.17506        9.68000
O          2.42555       95.04233        9.86286
C         -0.34226       96.68740        8.88264
C         -0.19012       95.58025        7.85819
C         -0.44269       94.23685        8.19616
C          0.23478       95.88688        6.55335
C         -0.25955       93.22401        7.24917
C          0.40852       94.87165        5.60853
C          0.16562       93.54110        5.95684
H         -0.05327       98.41436       10.77081
H          0.16519       95.54349       10.62233
H         -0.09243       97.66385        8.41806
H         -1.40148       96.74023        9.21542
H         -0.76729       93.96805        9.19282
H          0.43693       96.91125        6.26661
H         -0.44333       92.19175        7.51837
H          0.73718       95.11691        4.60699
H          0.30823       92.75598        5.22556
N          2.82711       97.10646        9.09042
C          4.20050       96.82986        8.66902
C          5.03711       96.23904        9.79011
O          5.74747       95.27452        9.53976
C          4.71863       98.19323        8.17744
C          3.85920       99.18978        8.93173
C          2.50336       98.50225        8.86934
H          4.24217       96.11385        7.81776
H          5.81791       98.34469        8.24067
H          4.42346       98.29965        7.10867
H          4.19588       99.24027        9.98672
H          3.86845      100.22212        8.52207
H          1.81782       98.95331        9.59570
H          2.08412       98.60566        7.84367
N          4.95865       96.71445       11.05918
C          5.70039       96.14285       12.17849
C          5.34065       94.67528       12.34868
O          6.23217       93.83809       12.33008
C          5.41148       96.94824       13.46164
C          5.93167       98.39474       13.31844
C          5.62991       99.25297       14.50600
O          4.98456       98.75796       15.57661
O          5.97554      100.42264       14.50023
H          4.30475       97.48533       11.24449
H          6.79413       96.21495       11.98096
H          5.92398       96.46994       14.32420
H          4.31690       96.95130       13.66084
H          5.47063       98.89271       12.44246
H          7.03255       98.37207       13.16612
N          4.04333       94.28793       12.46435
C          3.64257       92.90195       12.55735
H          2.53343       92.83354       12.59146
H          3.99788       92.34425       11.66412
H          4.05947       92.44431       13.47771
H          3.30930       94.99967       12.44760
Ca         3.99488      101.11708       17.08230
O          1.12548      101.47839       16.21583
H          0.21626      101.09102       16.16098
H          1.03086      102.39368       15.85238

Ca 1.0



