%chk=holoCaM-CaMKII.loop1.water2.frame184.chk
%nprocshared=20
%mem=10GB
%nosave
#b3lyp/svp scf=(tight,noincore,xqc) Test 
#IOP(5/87=12) Density=Current Pop=(MK,readradii) iop(6/33=2) iop(6/42=6)

holoCaM-CaMKII.loop1.water2.frame184 

   0  1 
C          2.92187       60.19282        9.41951
C          2.28705       61.49959        9.03515
O          2.28250       62.41449        9.84167
H          3.99248       60.35424        9.66167
H          2.39995       59.76982       10.30227
H          2.86144       59.45113        8.59338
N          1.74907       61.65006        7.79552
C          1.10670       62.86074        7.28333
C         -0.18904       63.15454        8.05290
O         -1.26002       62.80169        7.57933
C          0.90450       62.63912        5.75795
C          0.29421       63.74867        4.95214
O          0.83964       64.97642        4.87082
O         -0.69784       63.50994        4.28296
H          1.82865       60.84141        7.15789
H          1.79580       63.72377        7.38161
H          0.28589       61.72583        5.60892
H          1.90409       62.44497        5.31047
N         -0.15770       63.86996        9.22302
C         -1.34534       64.26058        9.99296
C         -1.71458       65.71950        9.75316
O         -2.73092       66.15569       10.27683
C         -1.11881       64.03132       11.50473
C         -0.94280       62.57615       11.98428
C         -2.23706       61.73678       11.98544
C         -2.68682       61.21738       10.60507
N         -4.07374       61.58652       10.31574
H          0.74865       64.24239        9.54204
H         -2.23709       63.71308        9.64351
H         -1.96463       64.46354       12.08458
H         -0.20622       64.60110       11.78999
H         -0.64801       62.66087       13.05429
H         -0.11612       62.05693       11.45497
H         -3.04512       62.30615       12.49753
H         -2.05948       60.84011       12.61910
H         -2.59516       60.10861       10.58819
H         -2.01628       61.56495        9.79740
H         -4.33895       61.21611        9.37480
H         -4.71160       61.17426       11.03487
H         -4.18137       62.62648       10.31205
N         -0.99768       66.49892        8.89935
C         -1.43674       67.80916        8.42782
C         -1.92173       67.69698        6.97620
O         -2.37965       68.69438        6.43708
C         -0.34589       68.89498        8.66600
C          0.98330       68.62081        8.00876
O          1.11683       67.50904        7.27528
O          1.92723       69.37537        8.17367
H         -0.16646       66.09100        8.46467
H         -2.32962       68.14315        9.00057
H         -0.17162       68.96417        9.76214
H         -0.72663       69.87921        8.31744
N         -1.95238       66.49110        6.31900
C         -2.61547       66.27627        5.04148
C         -1.96764       66.91535        3.83218
O         -2.53454       66.77510        2.75740
H         -1.60219       65.63922        6.77740
H         -3.66480       66.63029        5.12852
H         -2.65541       65.18282        4.84336
N         -0.80385       67.62258        3.89617
C         -0.22280       68.28727        2.72709
C          0.33303       67.33377        1.65365
O          0.83541       67.83184        0.65546
C          0.82206       69.33926        3.17301
C          2.04845       68.80696        3.85439
O          2.97882       69.66949        4.30277
O          2.21545       67.61252        4.01047
H         -0.35283       67.75332        4.81219
H         -1.02835       68.88817        2.24859
H          0.32130       70.03942        3.87734
H          1.14825       69.92612        2.28828
N          0.24213       65.97212        1.74740
C          0.67485       65.06187        0.69296
C          2.17012       64.80990        0.64224
O          2.58151       64.00577       -0.18121
H         -0.23214       65.54519        2.55045
H          0.29150       65.41034       -0.29126
H          0.21748       64.06749        0.88895
N          3.03851       65.41388        1.50058
C          4.46599       65.10869        1.56112
C          4.85156       64.62677        2.95442
O          4.20079       64.97471        3.92879
C          5.31918       66.34905        1.16330
C          5.29996       66.56428       -0.34955
O          4.86761       67.53153        1.77709
H          2.67590       66.10284        2.16608
H          4.72530       64.27943        0.86687
H          6.38454       66.17527        1.43649
H          4.61575       67.32061        2.70864
H          4.26856       66.74809       -0.71463
H          5.93596       67.43843       -0.60936
H          5.71944       65.67291       -0.86411
N          5.94750       63.82618        3.10132
C          6.47247       63.36646        4.38378
C          7.87674       63.91989        4.53104
O          8.67416       63.77791        3.61484
C          6.47196       61.81105        4.48613
C          5.02379       61.26845        4.35957
C          7.10308       61.37002        5.82934
C          4.92208       59.74178        4.43982
H          6.45999       63.54221        2.25240
H          5.84895       63.73584        5.22206
H          7.08815       61.39235        3.65969
H          4.61027       61.57725        3.37593
H          4.38379       61.70418        5.15833
H          7.17638       60.26778        5.90490
H          8.14390       61.73957        5.92253
H          6.51088       61.75520        6.68744
H          5.55572       59.26829        3.66078
H          5.22234       59.36601        5.43943
H          3.86775       59.43265        4.28209
N          8.25842       64.51687        5.69440
C          9.58991       65.07330        5.90865
C         10.37655       64.21076        6.87570
O          9.84903       63.24754        7.40636
C          9.47914       66.52834        6.44453
C          8.79760       67.46853        5.44429
O          8.82720       66.56227        7.69290
H          7.59169       64.53320        6.47830
H         10.16614       65.08234        4.95823
H         10.49750       66.94113        6.60138
H          7.84732       66.52079        7.54146
H          9.37485       67.50230        4.49741
H          7.76781       67.12272        5.22513
H          8.74938       68.49373        5.87085
N         11.67335       64.52280        7.14930
C         12.47894       63.83461        8.15575
C         11.82772       63.98388        9.51824
O         11.76550       63.02657       10.27677
C         13.90775       64.44101        8.23037
C         14.69915       64.24862        6.93459
O         13.84360       65.81470        8.53035
H         12.08667       65.32431        6.65223
H         12.58218       62.75505        7.90403
H         14.45565       63.89271        9.03579
H         14.54283       66.00648        9.20828
H         14.78632       63.16866        6.69391
H         14.21823       64.77175        6.08274
H         15.72068       64.66623        7.06188
N         11.32306       65.19505        9.87507
C         10.75716       65.51961       11.17604
C          9.60286       64.59252       11.50287
O          9.62113       63.96118       12.55000
C         10.29957       67.00653       11.22485
C         11.35072       68.03912       10.73768
C         12.72039       67.91694       11.42103
C         13.73823       68.86379       10.76697
N         15.05116       68.74101       11.39865
H         11.35392       65.92822        9.15934
H         11.54544       65.38727       11.94907
H         10.01070       67.24273       12.27184
H          9.40061       67.14532       10.58458
H         10.94601       69.06284       10.88958
H         11.49679       67.93925        9.64392
H         13.11397       66.88652       11.29903
H         12.61630       68.13891       12.50441
H         13.38587       69.91550       10.84329
H         13.83430       68.60559        9.68714
H         15.39562       67.75546       11.32915
H         15.72766       69.36793       10.90593
H         14.99175       69.02533       12.40292
N          8.58584       64.42743       10.61245
C          7.46837       63.50999       10.81846
C          7.97255       62.09574       11.04850
O          7.62346       61.51007       12.06419
C          6.49273       63.56633        9.62044
C          5.79390       64.93712        9.55718
C          4.78903       65.00842        8.45022
O          3.49165       65.21754        8.73956
O          5.14084       64.91414        7.28727
H          8.63612       64.95494        9.72932
H          6.89683       63.81546       11.72384
H          5.70625       62.79079        9.75564
H          7.03370       63.35151        8.67154
H          6.52815       65.75640        9.41940
H          5.26366       65.10810       10.51865
N          8.83184       61.50354       10.17482
C          9.38888       60.17973       10.37230
H         10.49250       60.25821       10.47212
H          8.99398       59.68340       11.28379
H          9.15225       59.54370        9.49489
H          9.13818       62.02521        9.34629
Ca         2.34765       66.01062        6.17500
O          5.41110       68.14781        5.00668
H          5.78296       68.71047        5.72870
H          5.74318       68.58185        4.18220
O          4.92027       68.15349        8.19845
H          5.49913       68.95295        8.27375
H          4.22265       68.41223        7.54578

Ca 1.0



