%chk=holoCaM.loop4.water3.frame377.chk
%nprocshared=20
%mem=10GB
%nosave
#b3lyp/svp scf=(tight,noincore,xqc) Test 
#IOP(5/87=12) Density=Current Pop=(MK,readradii) iop(6/33=2) iop(6/42=6)

holoCaM.loop4.water3.frame377 

   -3  1 
C          8.77406      -15.25045       52.21608
C          9.03306      -16.65852       52.66062
O          8.21435      -17.51546       52.36533
H          7.81657      -14.89272       52.64908
H          9.58976      -14.56684       52.52881
H          8.69907      -15.22770       51.10770
N         10.15044      -16.97578       53.37912
C         10.46633      -18.33973       53.79480
C         11.68007      -18.35547       54.72190
O         12.74196      -17.88039       54.34457
C         10.71366      -19.23508       52.56338
C         11.03050      -20.64077       52.96707
O         12.07727      -21.15438       52.60867
O         10.16501      -21.33609       53.73053
H         10.79425      -16.21392       53.64283
H          9.59180      -18.74609       54.35104
H         11.54563      -18.82006       51.95358
H          9.80807      -19.27780       51.92656
N         11.56718      -18.91244       55.96154
C         12.61564      -18.93846       56.98053
C         13.05797      -20.37975       57.30047
O         14.06376      -20.54076       57.97689
C         12.03800      -18.21745       58.25204
C         11.61174      -16.76358       57.89940
C         12.99917      -18.22696       59.45775
C         10.80337      -16.06952       58.99999
H         10.65855      -19.31027       56.21725
H         13.51483      -18.40089       56.60747
H         11.12309      -18.77616       58.55702
H         10.94774      -16.77187       57.01079
H         12.50731      -16.15620       57.64677
H         13.22133      -19.25950       59.78898
H         13.94436      -17.70035       59.21241
H         12.53562      -17.74968       60.34303
H          9.89140      -16.65974       59.23634
H         11.39689      -15.92201       59.92274
H         10.48622      -15.06685       58.64355
N         12.33626      -21.46769       56.89871
C         12.62522      -22.84645       57.31848
C         12.64066      -23.86321       56.15687
O         12.90470      -25.02937       56.41539
C         11.59739      -23.26380       58.40006
C         10.18530      -23.27762       57.89131
O          9.94174      -22.92580       56.61816
O          9.27097      -23.63979       58.61371
H         11.48281      -21.29610       56.36455
H         13.62260      -22.89290       57.80753
H         11.66061      -22.56288       59.26128
H         11.84933      -24.28210       58.76914
N         12.39330      -23.50149       54.86275
C         12.51208      -24.40049       53.71580
C         11.46162      -25.50022       53.55108
O         11.62910      -26.27855       52.62231
H         12.22063      -22.51428       54.65733
H         13.51907      -24.87146       53.75620
H         12.47502      -23.79431       52.78607
N         10.38456      -25.66602       54.37602
C          9.52307      -26.85896       54.31152
C          8.42087      -26.85058       53.23588
O          7.65762      -27.80609       53.20059
C          9.00053      -27.21323       55.72679
C          7.95325      -26.31683       56.32171
O          7.31028      -25.40060       55.58941
O          7.62506      -26.47446       57.48556
H         10.28419      -25.02792       55.17570
H         10.17917      -27.72901       54.08044
H          9.88324      -27.21553       56.40358
H          8.57819      -28.24092       55.72591
N          8.29505      -25.86393       52.29804
C          7.28684      -25.89527       51.23087
C          5.86387      -25.55026       51.66806
O          4.98002      -25.54765       50.82286
H          8.98930      -25.10647       52.27909
H          7.31126      -26.88677       50.72801
H          7.55897      -25.13308       50.46867
N          5.58198      -25.19424       52.94813
C          4.29470      -24.71850       53.44983
C          4.47178      -23.29890       53.98602
O          5.57427      -22.76979       53.91516
C          3.79110      -25.64475       54.58372
C          3.43138      -27.05385       54.09803
C          2.83750      -27.87109       55.22172
N          3.56287      -28.17602       56.32370
O          1.68241      -28.26121       55.13471
H          6.35014      -25.19835       53.60958
H          3.52891      -24.68833       52.64351
H          2.86695      -25.21685       55.02540
H          4.55700      -25.70582       55.38375
H          4.32598      -27.57190       53.69281
H          2.67677      -26.96223       53.28563
H          4.54067      -27.86636       56.41741
H          3.14471      -28.72968       57.08682
N          3.42993      -22.62098       54.55215
C          3.56119      -21.28041       55.11595
C          3.29407      -21.33884       56.60858
O          2.16866      -21.61662       57.00337
C          2.57897      -20.30494       54.40573
C          2.58409      -18.90712       55.04535
C          2.91782      -20.17645       52.91437
H          2.50408      -23.07245       54.60380
H          4.59433      -20.89449       54.97171
H          1.54510      -20.70924       54.49330
H          3.59812      -18.45661       55.00523
H          1.86822      -18.24209       54.51755
H          2.25038      -18.95910       56.10080
H          2.87007      -21.16452       52.41148
H          2.18732      -19.50451       52.41450
H          3.93640      -19.75303       52.78303
N          4.29418      -21.08193       57.50363
C          4.06175      -21.02726       58.94302
C          3.36460      -19.71584       59.27219
O          3.31185      -18.84890       58.41655
C          5.41012      -21.13255       59.70209
C          5.26207      -21.31460       61.19182
N          4.62331      -22.39745       61.69448
O          5.74915      -20.49466       61.95402
H          5.24687      -20.92054       57.15051
H          3.43084      -21.90174       59.21428
H          6.02929      -20.23513       59.47747
H          5.96768      -22.01859       59.34344
H          4.22658      -23.11492       61.07050
H          4.53495      -22.52648       62.71323
N          2.79222      -19.49003       60.48252
C          2.15611      -18.20994       60.80859
C          3.16376      -17.06915       60.92284
O          2.77139      -15.92344       60.75137
C          1.25300      -18.33769       62.05182
C          1.95201      -18.97011       63.23431
C          1.57968      -20.26704       63.63242
C          2.97888      -18.31032       63.92887
C          2.23096      -20.89887       64.69038
C          3.62621      -18.94401       64.99527
C          3.25891      -20.24000       65.37577
O          3.89881      -20.84306       66.39716
H          2.77579      -20.26531       61.15852
H          1.47333      -17.94808       59.96746
H          0.41506      -19.00124       61.74283
H          0.80088      -17.36076       62.32796
H          0.79590      -20.80152       63.10911
H          3.28105      -17.31000       63.65045
H          1.93759      -21.90273       64.97055
H          4.41807      -18.42913       65.52338
H          3.67552      -21.74104       66.68206
N          4.47480      -17.30289       61.21146
C          5.49607      -16.25781       61.23616
C          5.69456      -15.72043       59.83403
O          5.65929      -14.51701       59.62192
C          6.85620      -16.83279       61.72310
C          6.85137      -17.31930       63.18563
C          6.70488      -16.22429       64.21265
O          6.69788      -16.54826       65.51911
O          6.62446      -15.04943       63.88954
H          4.76370      -18.26975       61.40495
H          5.19593      -15.43486       61.91763
H          7.65642      -16.06590       61.61757
H          7.13785      -17.69315       61.07625
H          7.82237      -17.82184       63.38513
H          6.04685      -18.06796       63.33103
N          5.93381      -16.60294       58.82987
C          6.24911      -16.24812       57.45140
C          5.10733      -15.45807       56.83703
O          5.32828      -14.33081       56.41726
C          6.54935      -17.54477       56.65709
C          7.77646      -18.28526       57.24886
C          7.95267      -19.68336       56.73692
O          8.88678      -20.46731       57.30115
O          7.22512      -20.14633       55.87679
H          5.88992      -17.60035       59.08170
H          7.16922      -15.62059       57.43406
H          6.74237      -17.32119       55.58472
H          5.65574      -18.20401       56.72176
H          7.67851      -18.40715       58.34281
H          8.69691      -17.69223       57.06790
N          3.85131      -15.97985       56.78360
C          2.69900      -15.27350       56.26369
H          1.93851      -15.17895       57.06811
H          2.95243      -14.25672       55.89941
H          2.25884      -15.85203       55.42572
H          3.69141      -16.92314       57.14668
Ca         8.07536      -23.33723       55.56380
O          7.09286      -20.20214       53.07914
H          6.38765      -20.40120       52.41479
H          6.78921      -19.36740       53.51493
O          5.85894      -23.46195       57.33974
H          5.47803      -24.26865       56.91902
H          6.67303      -23.77593       57.80632
O          8.34902      -22.65698       52.02174
H          9.27817      -22.77021       51.69821
H          7.88999      -22.17887       51.28782

Ca 1.0



