%chk=holoCaM-CaMKII.loop4.water1.frame187.chk
%nprocshared=20
%mem=10GB
%nosave
#b3lyp/svp scf=(tight,noincore,xqc) Test 
#IOP(5/87=12) Density=Current Pop=(MK,readradii) iop(6/33=2) iop(6/42=6)

holoCaM-CaMKII.loop4.water1.frame187 

   -3  1 
C         -4.47059       42.61655        8.71825
C         -4.58464       41.11877        8.68979
O         -4.05544       40.49870        7.78082
H         -5.00077       43.04796        9.59476
H         -3.40226       42.91063        8.77787
H         -4.92008       43.04185        7.79709
N         -5.26809       40.46812        9.66805
C         -5.42867       39.01900        9.72430
C         -6.21731       38.51657        8.51876
O         -7.26402       39.07723        8.22435
C         -6.17316       38.65469       11.02124
C         -6.25282       37.18306       11.29058
O         -5.67611       36.36545       10.59139
O         -6.96534       36.76786       12.34617
H         -5.68601       41.03704       10.42168
H         -4.42255       38.54543        9.77159
H         -7.20331       39.06926       10.97540
H         -5.65132       39.10842       11.89243
N         -5.79225       37.43066        7.80810
C         -6.47288       36.91461        6.62063
C         -7.14889       35.56746        6.89372
O         -8.14117       35.28823        6.23447
C         -5.46190       36.79518        5.42994
C         -4.74237       38.14679        5.17354
C         -6.15936       36.29271        4.14625
C         -3.67519       38.08291        4.07477
H         -4.94575       36.94423        8.12624
H         -7.27883       37.61981        6.31637
H         -4.68686       36.04710        5.71199
H         -4.21842       38.45208        6.10236
H         -5.48124       38.93557        4.91442
H         -5.43445       36.14512        3.32219
H         -6.62061       35.29756        4.30001
H         -6.94096       37.01092        3.81928
H         -4.12295       37.89488        3.07886
H         -3.14187       39.05516        4.01890
H         -2.93783       37.28361        4.29351
N         -6.65900       34.66490        7.79685
C         -7.20305       33.31236        7.95539
C         -7.82056       33.05679        9.32983
O         -8.22535       31.93045        9.58445
C         -6.12912       32.26069        7.59148
C         -4.93239       32.23049        8.50522
O         -4.68040       31.22302        9.14615
O         -4.09883       33.28268        8.57982
H         -5.84498       34.92330        8.36592
H         -8.02903       33.14220        7.23076
H         -5.77784       32.44461        6.55254
H         -6.61104       31.25793        7.60231
N         -8.01799       34.06006       10.22894
C         -8.72232       33.87659       11.48896
C         -7.94356       33.07080       12.50112
O         -8.45938       32.09143       13.01991
H         -7.74302       35.01992        9.98327
H         -9.72422       33.43106       11.30299
H         -8.88555       34.87601       11.94605
N         -6.70440       33.48681       12.87286
C         -5.92433       32.91431       13.96701
C         -5.61553       33.97239       15.03376
O         -4.87365       33.67727       15.96052
C         -4.64995       32.23068       13.41704
C         -3.69578       33.08887       12.62584
O         -3.93024       34.39288       12.40145
O         -2.68656       32.58186       12.16458
H         -6.31017       34.29191       12.36999
H         -6.49439       32.10877       14.48082
H         -4.97284       31.39760       12.75609
H         -4.09224       31.78506       14.27037
N         -6.18538       35.21484       14.99220
C         -5.95150       36.26799       15.96765
C         -4.56470       36.88171       15.92515
O         -4.33994       37.80164       16.69942
H         -6.88234       35.42382       14.27164
H         -6.17145       35.88639       16.98707
H         -6.66250       37.09837       15.75674
N         -3.59116       36.45835       15.06624
C         -2.26037       37.05668       15.00289
C         -1.95727       37.57933       13.60934
O         -2.69566       37.29010       12.67607
C         -1.19160       36.04726       15.48330
C         -1.14630       34.73260       14.67455
C         -0.10946       33.75929       15.18744
N          0.02662       32.54832       14.59897
O          0.60507       34.04920       16.13645
H         -3.79185       35.68493       14.42755
H         -2.21072       37.93341       15.68417
H         -1.41444       35.79522       16.54355
H         -0.19207       36.53286       15.44876
H         -0.92829       34.95444       13.60785
H         -2.12831       34.22259       14.74380
H         -0.56812       32.27990       13.80205
H          0.72522       31.87316       14.94390
N         -0.89186       38.41096       13.41633
C         -0.52330       38.96840       12.12039
C          0.92945       38.62578       11.84055
O          1.81109       39.12535       12.52685
C         -0.80135       40.49812       12.09977
C         -0.28607       41.17710       10.81991
C         -2.31486       40.75726       12.22066
H         -0.32989       38.68943       14.23602
H         -1.14406       38.51981       11.32365
H         -0.28380       40.97139       12.96344
H         -0.50197       42.26674       10.85585
H          0.81382       41.06427       10.72840
H         -0.77345       40.75054        9.92021
H         -2.85392       40.30678       11.35767
H         -2.72320       40.32064       13.15532
H         -2.52492       41.84746       12.23317
N          1.24229       37.73549       10.85755
C          2.61070       37.33282       10.53908
C          3.33506       38.45547        9.79796
O          2.71961       39.46687        9.50844
C          2.53962       36.04630        9.67336
C          3.85177       35.33500        9.46901
N          4.54050       34.84439       10.52610
O          4.28430       35.17384        8.33814
H          0.46622       37.28081       10.35296
H          3.13051       37.08487       11.48969
H          2.07524       36.29282        8.69174
H          1.88334       35.31776       10.19144
H          4.18033       34.94939       11.48567
H          5.43080       34.34495       10.38470
N          4.63944       38.33054        9.42639
C          5.33481       39.28179        8.55725
C          4.65372       39.35634        7.19956
O          4.38218       40.45442        6.73455
C          6.80981       38.84555        8.39380
C          7.57969       39.65212        7.36718
C          7.68403       41.05177        7.45749
C          8.20738       38.98943        6.29708
C          8.39702       41.77048        6.48979
C          8.92650       39.70758        5.33953
C          9.02242       41.10210        5.43109
O          9.71217       41.80658        4.51103
H          5.15510       37.49765        9.74094
H          5.33449       40.29512        9.01759
H          6.83841       37.77208        8.10319
H          7.31131       38.93867        9.38136
H          7.20952       41.58920        8.26801
H          8.14740       37.91211        6.20453
H          8.46537       42.84869        6.56296
H          9.40812       39.17754        4.52725
H         10.16340       41.37908        3.76859
N          4.34261       38.22039        6.51530
C          3.70918       38.21685        5.19836
C          2.41974       39.01840        5.21173
O          2.27921       39.92071        4.39769
C          3.42472       36.77639        4.71151
C          4.70902       35.94749        4.53524
C          4.40231       34.59862        3.95069
O          4.88987       34.26910        2.88102
O          3.59714       33.74124        4.60690
H          4.55202       37.32202        6.96952
H          4.39923       38.68725        4.46193
H          2.92285       36.84281        3.71986
H          2.73543       36.25966        5.41636
H          5.21897       35.79370        5.50794
H          5.40411       36.49060        3.85817
N          1.44888       38.76658        6.13222
C          0.20124       39.52427        6.19946
C          0.45413       41.01437        6.37967
O         -0.18629       41.80518        5.70132
C         -0.71501       39.01567        7.33001
C         -1.14565       37.55521        7.11902
C         -2.29325       37.18325        8.04833
O         -2.66597       35.84901        7.85297
O         -1.93232       37.32433        9.38817
H          1.62021       38.02038        6.82246
H         -0.36372       39.38715        5.24965
H         -1.62917       39.64818        7.31654
H         -0.22457       39.12487        8.32153
H         -0.28925       36.86318        7.26107
H         -1.52578       37.43645        6.08603
N          1.39608       41.46358        7.25244
C          1.69834       42.86290        7.47348
H          2.74620       43.06671        7.16560
H          1.02542       43.53724        6.90455
H          1.59492       43.09167        8.55484
H          1.95605       40.77948        7.76564
Ca        -2.44591       35.21736       10.02473
O         -0.00708       33.84712        9.39940
H         -0.11375       34.38750        8.57607
H         -0.23594       32.92419        9.12730

Ca 1.0



