%chk=holoCaM.loop4.water3.frame449.chk
%nprocshared=20
%mem=10GB
%nosave
#b3lyp/svp scf=(tight,noincore,xqc) Test 
#IOP(5/87=12) Density=Current Pop=(MK,readradii) iop(6/33=2) iop(6/42=6)

holoCaM.loop4.water3.frame449 

   -3  1 
C         34.60010       63.72250       44.62567
C         34.87919       62.61375       45.59293
O         33.98355       61.81339       45.82106
H         33.75090       64.33483       44.99418
H         35.48649       64.37297       44.48254
H         34.32394       63.27940       43.64414
N         36.09616       62.49359       46.20483
C         36.40941       61.37520       47.08932
C         37.75818       61.57609       47.78200
O         38.75432       61.81291       47.11291
C         36.42739       60.05312       46.28225
C         36.42121       58.82669       47.15088
O         36.44668       57.72416       46.63055
O         36.32166       58.92231       48.48837
H         36.81130       63.21655       46.03111
H         35.60639       61.31839       47.85816
H         37.31375       60.04287       45.61182
H         35.52531       59.96495       45.64617
N         37.85271       61.43725       49.13367
C         39.07574       61.60497       49.91762
C         39.57904       60.24718       50.41572
O         40.78633       60.06235       50.48291
C         38.78502       62.57236       51.11300
C         38.30149       63.95381       50.59267
C         40.02156       62.73647       52.02514
C         37.77387       64.87673       51.69623
H         36.99939       61.18149       49.64550
H         39.88787       62.04849       49.29774
H         37.96817       62.12140       51.72056
H         37.45595       63.81050       49.88774
H         39.12487       64.46082       50.04291
H         39.79994       63.37905       52.89999
H         40.34026       61.76045       52.44480
H         40.87023       63.17879       51.46104
H         38.55847       65.14235       52.43169
H         37.41003       65.82184       51.24125
H         36.92382       64.39249       52.22327
N         38.71569       59.26626       50.80514
C         39.11470       57.99706       51.41114
C         38.76955       56.79859       50.52251
O         39.68052       56.03152       50.24093
C         38.54854       57.90187       52.85843
C         37.15492       58.45024       53.00696
O         36.12885       57.93598       52.32197
O         36.97988       59.48021       53.63983
H         37.70862       59.43229       50.70111
H         40.22019       57.94686       51.53880
H         39.19147       58.55365       53.49181
H         38.63331       56.86873       53.25639
N         37.51584       56.55715       50.03889
C         37.17385       55.38449       49.23537
C         36.09183       54.52289       49.87203
O         35.73132       53.51644       49.27837
H         36.76675       57.23033       50.22326
H         38.06111       54.73855       49.06396
H         36.81353       55.72565       48.24353
N         35.53367       54.84262       51.07570
C         34.51638       54.05251       51.77125
C         33.16002       53.94166       51.06070
O         32.28365       53.29765       51.62202
C         34.31013       54.61524       53.20416
C         33.80829       56.03669       53.27651
O         33.62593       56.69914       52.26906
O         33.58405       56.59513       54.48017
H         35.89450       55.66471       51.56711
H         34.91109       53.01981       51.89371
H         35.28034       54.57480       53.74501
H         33.59435       53.96471       53.75001
N         32.90015       54.49090       49.83875
C         31.61830       54.32129       49.16551
C         30.50593       55.20216       49.70715
O         29.39618       55.08019       49.20607
H         33.64026       54.98067       49.32592
H         31.32597       53.24850       49.19740
H         31.73446       54.59576       48.09504
N         30.72013       56.14500       50.67069
C         29.69844       57.08081       51.13547
C         30.10421       58.50506       50.79553
O         31.18845       58.70184       50.25851
C         29.48104       56.93454       52.65376
C         29.01964       55.51879       53.03133
C         28.62022       55.39476       54.48267
N         28.16097       54.21210       54.95063
O         28.68926       56.35492       55.23724
H         31.65907       56.24661       51.06603
H         28.73011       56.88820       50.62322
H         28.69008       57.65026       52.96393
H         30.41601       57.18279       53.20532
H         29.83450       54.79362       52.81538
H         28.13295       55.25413       52.41677
H         28.09047       53.39379       54.32819
H         27.86736       54.11583       55.93396
N         29.26850       59.55434       51.05780
C         29.59491       60.93291       50.71126
C         29.64886       61.77704       51.97568
O         28.62033       61.99314       52.60376
C         28.57310       61.48161       49.67534
C         28.89551       62.92539       49.26643
C         28.55077       60.60380       48.41269
H         28.35247       59.37155       51.49697
H         30.59165       60.97163       50.23130
H         27.55565       61.46725       50.12579
H         28.86963       63.59398       50.14855
H         29.89566       62.97979       48.78941
H         28.14229       63.30028       48.54132
H         29.55167       60.58828       47.92964
H         28.25835       59.56207       48.65997
H         27.81033       60.99644       47.68352
N         30.84265       62.26836       52.41694
C         30.99198       63.11011       53.60271
C         30.44514       64.50589       53.31996
O         30.04094       64.77072       52.20111
C         32.50456       63.19299       53.95949
C         32.81715       63.75912       55.32229
N         32.36236       63.15009       56.44204
O         33.51931       64.75291       55.42129
H         31.69242       61.99894       51.90342
H         30.45192       62.62264       54.44327
H         33.03519       63.76587       53.16595
H         32.92743       62.17272       53.97137
H         31.79290       62.29371       56.38364
H         32.59471       63.52701       57.37283
N         30.42869       65.46574       54.28111
C         30.11016       66.86737       54.00552
C         31.17382       67.50071       53.10222
O         30.81025       68.18989       52.15936
C         29.84684       67.65528       55.31139
C         30.91732       67.58819       56.37443
C         30.82625       66.62130       57.39368
C         31.97490       68.50884       56.39897
C         31.78531       66.56046       58.40381
C         32.92838       68.45624       57.42383
C         32.83729       67.47813       58.42687
O         33.74659       67.41443       59.41991
H         30.68523       65.18898       55.23424
H         29.13496       66.92378       53.46921
H         28.92274       67.21855       55.75243
H         29.58299       68.71418       55.09633
H         30.01198       65.90645       57.40381
H         32.05112       69.27443       55.63740
H         31.70361       65.80279       59.17343
H         33.73453       69.17765       57.44163
H         34.48451       68.03656       59.48390
N         32.50282       67.23281       53.27999
C         33.58392       67.72925       52.41176
C         33.50644       67.23718       50.96109
O         34.33991       67.65554       50.16854
C         34.96126       67.26739       52.96049
C         35.32360       67.85124       54.33308
C         35.52690       69.33818       54.26345
O         34.76547       70.16219       55.00623
O         36.39299       69.80571       53.54037
H         32.75296       66.63477       54.07578
H         33.54397       68.84008       52.39308
H         35.77562       67.55186       52.25701
H         34.95692       66.15600       53.02606
H         36.27496       67.38962       54.67475
H         34.54225       67.60305       55.07899
N         32.56790       66.34888       50.53901
C         32.50153       65.79806       49.19076
C         31.24160       66.28984       48.51028
O         31.33538       66.85047       47.42711
C         32.53147       64.26210       49.27760
C         33.84619       63.76887       49.89981
C         33.86332       62.29102       50.13212
O         34.89644       61.76074       50.79555
O         32.94410       61.57464       49.77994
H         31.87525       66.00406       51.20645
H         33.36829       66.11805       48.56889
H         32.41642       63.81510       48.26509
H         31.68766       63.92374       49.91733
H         33.98447       64.24593       50.89189
H         34.70672       64.04331       49.25109
N         30.02577       66.15218       49.10357
C         28.80763       66.64876       48.50818
H         27.95489       66.47096       49.19836
H         28.89337       67.74177       48.32933
H         28.61239       66.12243       47.55144
H         29.95775       65.70751       50.02337
Ca        35.02238       59.57987       51.28962
O         33.00804       59.82832       53.32971
H         32.66648       58.90198       53.30553
H         33.90393       59.76019       53.74732
O         33.11558       57.16827       48.16625
H         32.67928       56.94212       47.30684
H         34.07681       56.99014       48.01229
O         32.35887       59.83544       47.78957
H         33.32359       60.03220       47.68369
H         32.05494       59.57221       46.88647

Ca 1.0



