%chk=holoCaM-CaMKII.loop4.water1.frame394.chk
%nprocshared=20
%mem=10GB
%nosave
#b3lyp/svp scf=(tight,noincore,xqc) Test 
#IOP(5/87=12) Density=Current Pop=(MK,readradii) iop(6/33=2) iop(6/42=6)

holoCaM-CaMKII.loop4.water1.frame394 

   -3  1 
C         66.17257       76.83164       93.09930
C         67.15852       76.92499       94.22731
O         68.32082       76.62372       94.02115
H         65.15512       77.14047       93.42176
H         66.49321       77.49250       92.26776
H         66.12043       75.78306       92.73911
N         66.75420       77.33402       95.45802
C         67.63199       77.45025       96.62057
C         68.22252       76.09176       96.98921
O         67.45184       75.15426       97.14640
C         66.78834       77.97661       97.79463
C         67.56253       78.25581       99.03758
O         66.87910       78.56800      100.14521
O         68.78169       78.21019       99.06448
H         65.75768       77.58018       95.57102
H         68.43532       78.18886       96.40302
H         66.00550       77.22340       98.03282
H         66.28121       78.92421       97.50870
N         69.57192       75.91421       97.15930
C         70.17335       74.60548       97.43778
C         70.82744       74.54837       98.83000
O         71.15994       73.45240       99.25671
C         71.17738       74.21550       96.29390
C         70.57554       74.53326       94.89711
C         71.57512       72.72454       96.37656
C         71.51478       74.27065       93.71785
H         70.19559       76.72484       97.05695
H         69.36295       73.84480       97.44673
H         72.09036       74.84276       96.40201
H         70.36292       75.61837       94.85577
H         69.62777       73.97215       94.74529
H         72.07326       72.47431       97.32947
H         70.67739       72.07946       96.25741
H         72.31007       72.45732       95.59310
H         71.73140       73.19096       93.59819
H         71.02801       74.61655       92.78098
H         72.46392       74.83265       93.84847
N         71.02168       75.65674       99.61210
C         71.59200       75.59472      100.96423
C         70.60894       76.07342      102.03330
O         70.98054       76.09741      103.19876
C         72.92730       76.37325      101.04178
C         72.83767       77.86673      100.87185
O         71.77576       78.42315      100.64691
O         73.95565       78.60461      101.00596
H         70.75786       76.58085       99.24950
H         71.84576       74.54476      101.22695
H         73.63000       75.96802      100.28181
H         73.37571       76.18861      102.04278
N         69.33094       76.43411      101.72473
C         68.35385       76.86082      102.71120
C         68.68975       78.19786      103.33799
O         68.75820       78.28131      104.55550
H         69.00020       76.35777      100.75476
H         68.23424       76.07130      103.48525
H         67.37243       76.97782      102.20448
N         68.86754       79.29914      102.55318
C         69.07271       80.65701      103.05979
C         67.99225       81.62815      102.55748
O         68.11064       82.81964      102.80699
C         70.49422       81.15206      102.70588
C         70.81855       81.28570      101.24067
O         72.03338       81.73803      100.87846
O         70.01191       80.99020      100.37647
H         68.84425       79.16660      101.53492
H         69.02287       80.66837      104.17116
H         71.23068       80.45400      103.15945
H         70.64165       82.14823      103.17688
N         66.88372       81.18541      101.89521
C         65.79511       82.03792      101.44013
C         66.07464       82.86589      100.19562
O         65.14992       83.54769       99.77447
H         66.73638       80.17796      101.79842
H         65.46090       82.69015      102.27591
H         64.93848       81.38106      101.17165
N         67.27681       82.87653       99.54442
C         67.52078       83.66938       98.33377
C         68.06921       82.82409       97.19368
O         68.39018       81.66232       97.41490
C         68.39095       84.89769       98.68696
C         69.74881       84.64740       99.37652
C         70.84763       84.16582       98.46278
N         71.93587       84.94160       98.24787
O         70.77924       83.06966       97.93267
H         68.05389       82.32980       99.92946
H         66.55775       84.07891       97.95749
H         67.78518       85.47448       99.42080
H         68.53396       85.55254       97.80043
H         69.64048       83.96355      100.24347
H         70.06633       85.62819       99.79084
H         72.02726       85.86868       98.68784
H         72.69703       84.61635       97.64062
N         68.14769       83.33210       95.92164
C         68.64046       82.55784       94.78131
C         69.69901       83.35484       94.01845
O         69.36948       84.37550       93.42882
C         67.46937       82.14657       93.84054
C         67.95912       81.22378       92.71129
C         66.36033       81.41434       94.61394
H         67.79322       84.28524       95.74587
H         69.08846       81.61703       95.14880
H         67.02483       83.06013       93.38747
H         68.73787       81.72034       92.10222
H         68.37126       80.28266       93.13277
H         67.12086       80.95868       92.03298
H         66.75710       80.49403       95.09530
H         65.92653       82.07158       95.39549
H         65.53713       81.12872       93.92438
N         70.99637       82.93830       93.98811
C         72.05834       83.60786       93.22756
C         71.91204       83.36351       91.73334
O         70.99989       82.67071       91.31979
C         73.42869       83.04943       93.67376
C         73.70203       83.40145       95.10730
N         73.79599       82.43854       96.05022
O         73.83998       84.57496       95.41893
H         71.24630       82.11326       94.55192
H         72.03891       84.70267       93.42761
H         74.26527       83.46774       93.07596
H         73.43188       81.94712       93.52732
H         73.67012       81.44591       95.80470
H         73.98092       82.68984       97.03156
N         72.82211       83.88230       90.86005
C         72.85042       83.55365       89.43710
C         73.13094       82.06685       89.26173
O         72.37038       81.39442       88.57990
C         73.94080       84.39498       88.73303
C         73.99332       84.20224       87.23237
C         72.88613       84.52635       86.42731
C         75.16638       83.72887       86.61914
C         72.95401       84.38187       85.03733
C         75.23218       83.58691       85.22916
C         74.12602       83.91603       84.43306
O         74.17963       83.79492       83.09088
H         73.55097       84.51096       91.23037
H         71.87076       83.81845       88.98146
H         74.92896       84.16060       89.18633
H         73.73722       85.47155       88.92105
H         71.97311       84.90167       86.87107
H         76.03518       83.47731       87.21413
H         72.09682       84.64056       84.42792
H         76.14551       83.22743       84.77181
H         74.97566       83.48972       82.63230
N         74.20414       81.48907       89.88123
C         74.55332       80.07441       89.75933
C         73.39218       79.16503       90.12126
O         73.07078       78.29106       89.32760
C         75.82991       79.72167       90.57055
C         75.71646       79.87098       92.09998
C         77.00937       79.51268       92.77518
O         77.04942       78.49554       93.65780
O         78.02597       80.14552       92.53839
H         74.80130       82.09031       90.46829
H         74.81516       79.87549       88.69512
H         76.65665       80.36972       90.20484
H         76.10437       78.66635       90.34619
H         74.93781       79.18596       92.49024
H         75.45270       80.91384       92.37132
N         72.69396       79.32768       91.28123
C         71.57316       78.47004       91.64935
C         70.49441       78.51835       90.58103
O         70.13095       77.47284       90.06084
C         70.98677       78.85975       93.02231
C         71.96740       78.60235       94.18006
C         71.24425       78.67879       95.52167
O         72.11094       78.39094       96.58071
O         70.71267       79.94646       95.75536
H         72.95482       80.10224       91.90880
H         71.92645       77.41718       91.73367
H         70.09793       78.21695       93.18811
H         70.66038       79.92222       93.02980
H         72.82344       79.30999       94.14569
H         72.35650       77.56521       94.09666
N         69.96898       79.70640       90.18121
C         68.96972       79.84301       89.14235
H         68.08292       80.36872       89.55250
H         69.38973       80.44730       88.31015
H         68.64500       78.86310       88.73531
H         70.31585       80.56506       90.61513
Ca        71.39671       80.09264       97.90733
O         74.31439       80.47974       98.35668
H         73.87172       79.68896       98.74934
H         74.87812       80.10715       97.63388

Ca 1.0



