%chk=holoCaM-CaMKII.loop3.water1.frame413.chk
%nprocshared=20
%mem=10GB
%nosave
#b3lyp/svp scf=(tight,noincore,xqc) Test 
#IOP(5/87=12) Density=Current Pop=(MK,readradii) iop(6/33=2) iop(6/42=6)

holoCaM-CaMKII.loop3.water1.frame413 

   0  1 
C         40.96478       50.20631       41.50367
C         40.23323       48.90071       41.59194
O         40.58766       48.09444       42.44069
H         42.03755       50.01102       41.29161
H         40.55547       50.84845       40.69674
H         40.88010       50.74610       42.46999
N         39.20649       48.61474       40.73754
C         38.48269       47.34790       40.76090
C         38.71065       46.60789       39.43685
O         39.39292       47.13677       38.56940
C         36.97505       47.62681       41.03811
C         36.22694       46.43352       41.58571
O         34.89987       46.45861       41.80324
O         36.83583       45.43936       41.94636
H         38.93392       49.31574       40.03107
H         38.88402       46.71894       41.58449
H         36.49757       48.01610       40.11332
H         36.88054       48.40693       41.82497
N         38.17247       45.37556       39.21480
C         38.33096       44.60231       37.99182
C         37.00152       44.40227       37.27036
O         37.03090       43.88947       36.16000
C         38.97297       43.22641       38.31964
C         38.13302       42.38963       39.31866
C         38.65451       40.96887       39.56516
C         40.04855       40.93205       40.20677
N         40.43673       39.55528       40.51276
H         37.61080       44.94751       39.94148
H         38.99503       45.14652       37.28588
H         39.98301       43.40018       38.74672
H         39.09064       42.65463       37.37381
H         37.09722       42.28884       38.92906
H         38.08925       42.89848       40.30207
H         38.66028       40.40192       38.60970
H         37.93961       40.47188       40.25869
H         40.04425       41.52536       41.14825
H         40.79517       41.37472       39.51367
H         40.44261       38.97942       39.63957
H         41.39570       39.55248       40.92874
H         39.76907       39.13987       41.20311
N         35.80191       44.72897       37.84158
C         34.51467       44.48918       37.19442
C         33.63123       45.73155       37.13522
O         32.57316       45.65098       36.52606
C         33.80101       43.31623       37.90355
C         33.46773       43.52949       39.35830
O         33.68741       44.59000       39.91918
O         32.91926       42.51774       40.05434
H         35.78710       45.09484       38.79979
H         34.67712       44.16806       36.14254
H         34.46978       42.43058       37.84160
H         32.86028       43.07127       37.36567
N         33.97569       46.90577       37.74331
C         33.15074       48.09937       37.69906
C         31.77735       47.86214       38.27378
O         30.80849       48.10566       37.56699
H         34.85725       46.98373       38.26608
H         33.06311       48.44921       36.64610
H         33.64304       48.90445       38.28580
N         31.61151       47.38305       39.54311
C         30.28929       47.16233       40.12569
C         30.03726       47.98646       41.38222
O         28.90100       47.96762       41.83497
C         30.01451       45.65660       40.33186
C         30.88003       44.94417       41.33887
N         30.69496       43.61994       41.54775
O         31.73632       45.54245       41.97184
H         32.45058       47.15270       40.09585
H         29.51234       47.49995       39.40568
H         30.13611       45.14867       39.34993
H         28.95658       45.52828       40.64977
H         29.97456       43.10045       41.02395
H         31.27124       43.11014       42.23203
N         30.99961       48.75332       41.98758
C         30.68510       49.66036       43.08727
C         31.29779       49.29080       44.41974
O         30.97055       49.96940       45.38471
H         31.96884       48.74539       41.64078
H         29.58949       49.69419       43.26076
H         30.99554       50.68965       42.80578
N         32.16636       48.25317       44.58870
C         32.64115       47.86271       45.91607
C         33.78556       46.87614       45.82909
O         33.63563       45.87249       45.14964
C         31.50721       47.22107       46.76539
C         31.02140       45.89621       46.20653
C         31.39797       44.69330       46.83399
C         30.22624       45.84105       45.04975
C         31.00773       43.46208       46.30122
C         29.81911       44.60717       44.53195
C         30.21673       43.41492       45.14614
O         29.83859       42.23378       44.61650
H         32.49455       47.72922       43.76308
H         33.00840       48.76634       46.45240
H         30.64686       47.90676       46.91190
H         31.94301       47.04696       47.77445
H         32.02021       44.70583       47.72034
H         29.91721       46.74829       44.54853
H         31.32606       42.54643       46.78404
H         29.20187       44.57777       43.64374
H         30.11077       41.38729       44.99944
N         34.92350       47.04381       46.56357
C         35.98819       46.04477       46.57738
C         36.05887       45.33235       47.90829
O         35.48033       45.77837       48.89180
C         37.37897       46.64963       46.21425
C         37.83695       47.73318       47.22596
C         37.35475       47.18048       44.78095
C         39.27561       48.20092       47.00035
H         35.00080       47.86463       47.18304
H         35.75982       45.24627       45.83740
H         38.12229       45.82177       46.24370
H         37.80037       47.31134       48.25290
H         37.16293       48.61440       47.18629
H         36.63767       48.02104       44.67237
H         38.35882       47.50576       44.44341
H         37.04525       46.35258       44.12652
H         39.97013       47.33770       47.06690
H         39.39561       48.69820       46.01729
H         39.55118       48.93551       47.78578
N         36.77730       44.18309       47.98215
C         37.04204       43.43908       49.19942
C         38.54852       43.33732       49.37979
O         39.28590       43.87904       48.56446
C         36.37465       42.05481       49.10032
O         36.87423       41.33944       48.00313
H         37.18693       43.81120       47.11063
H         36.61460       43.95566       50.08706
H         35.27704       42.20883       48.98185
H         36.54895       41.47556       50.03256
H         36.29699       40.53670       47.91216
N         39.08866       42.64888       50.41888
C         40.52875       42.48020       50.58632
C         41.14035       41.79148       49.37845
O         42.17677       42.23815       48.90941
C         40.83181       41.67574       51.84975
H         38.45272       42.21104       51.10387
H         41.00732       43.47778       50.71715
H         41.93177       41.58677       51.98336
H         40.41723       42.20323       52.73540
H         40.38863       40.65978       51.78947
N         40.53027       40.71357       48.80546
C         41.05488       40.03506       47.62451
C         41.17783       40.98078       46.44055
O         42.27928       41.12708       45.92715
C         40.16249       38.84607       47.24678
H         39.65191       40.37010       49.22349
H         42.06169       39.62715       47.86879
H         39.13273       39.18067       46.99857
H         40.58733       38.31348       46.36861
H         40.10702       38.13071       48.09454
N         40.09517       41.65165       45.94239
C         40.19242       42.52993       44.77424
C         41.07640       43.75331       45.02076
O         41.36538       44.45938       44.06386
C         38.80028       43.00633       44.29797
C         37.88390       41.85217       43.85101
C         36.60564       42.40286       43.28419
O         36.34841       42.25157       42.10119
O         35.76337       43.11713       44.05356
H         39.17829       41.50434       46.38914
H         40.65134       41.94206       43.94738
H         38.94437       43.67677       43.41998
H         38.31047       43.59626       45.10002
H         37.64860       41.16825       44.69186
H         38.40884       41.27375       43.05980
N         41.53795       44.07993       46.25979
C         42.40164       45.21540       46.49595
H         43.35346       45.08823       45.93833
H         41.90213       46.15147       46.17262
H         42.63540       45.29090       47.58025
H         41.26880       43.51914       47.07178
Ca        34.43503       44.57789       42.96048
O         33.19182       41.65480       43.49933
H         32.39347       41.07189       43.54756
H         33.57911       41.47128       42.60674

Ca 1.0



