%chk=holoCaM-CaMKII.loop1.water2.frame176.chk
%nprocshared=20
%mem=10GB
%nosave
#b3lyp/svp scf=(tight,noincore,xqc) Test 
#IOP(5/87=12) Density=Current Pop=(MK,readradii) iop(6/33=2) iop(6/42=6)

holoCaM-CaMKII.loop1.water2.frame176 

   0  1 
C        104.52481       60.28932       14.65960
C        105.79610       61.06500       14.76959
O        106.22966       61.32981       15.88094
H        103.77252       60.87710       14.09750
H        104.72819       59.33349       14.13191
H        104.12797       60.05711       15.67186
N        106.48010       61.43426       13.65031
C        107.77702       62.08351       13.74160
C        107.63593       63.46981       14.35965
O        107.04533       64.33867       13.73127
C        108.44398       62.17704       12.35389
C        109.90904       62.45267       12.47348
O        110.50211       62.45702       13.68509
O        110.58430       62.57165       11.46521
H        106.10186       61.17224       12.72635
H        108.40130       61.41650       14.37921
H        107.93738       62.94448       11.72803
H        108.36106       61.20577       11.82278
N        108.09924       63.72743       15.61686
C        107.81001       64.97982       16.30989
C        108.81328       66.09075       16.02656
O        108.50902       67.21688       16.39686
C        107.75881       64.77658       17.84135
C        106.78456       63.69642       18.34140
C        105.33008       63.94042       17.91774
C        104.39644       62.92404       18.58868
N        103.01049       63.12761       18.17028
H        108.48709       62.94051       16.15016
H        106.80706       65.33348       15.98240
H        107.47355       65.74103       18.31764
H        108.77553       64.50499       18.20302
H        106.84403       63.70077       19.45175
H        107.10701       62.69256       17.99421
H        105.24142       63.84529       16.81400
H        105.02059       64.96510       18.21777
H        104.46604       63.04159       19.69349
H        104.70988       61.88908       18.32589
H        102.91946       62.95699       17.14239
H        102.39730       62.45236       18.68151
H        102.70304       64.10145       18.39648
N        110.03320       65.87184       15.44551
C        111.00914       66.94996       15.24068
C        111.29270       67.20998       13.76261
O        112.04191       68.13007       13.46604
C        112.28499       66.70620       16.08324
C        113.13430       65.53763       15.67496
O        114.24787       65.25377       16.37722
O        112.84952       64.86111       14.70445
H        110.29254       64.91461       15.16728
H        110.59555       67.90689       15.62530
H        111.97948       66.56517       17.14370
H        112.92801       67.61143       16.03552
N        110.66851       66.49924       12.78009
C        110.74216       66.83597       11.36816
C        112.09999       66.63672       10.73477
O        112.61429       67.55791       10.11815
H        110.02633       65.73393       13.03028
H        110.38913       67.87906       11.21958
H        110.04104       66.16699       10.82200
N        112.69124       65.41574       10.78019
C        113.86831       65.02751        9.99562
C        113.52471       63.82732        9.09996
O        114.43005       63.25180        8.51238
C        115.11111       64.79171       10.90597
C        114.93116       63.75706       11.97178
O        115.77919       63.58889       12.83257
O        113.76395       63.12056       12.03488
H        112.22185       64.69994       11.35157
H        114.18037       65.85031        9.31612
H        115.32726       65.75370       11.41995
H        115.99528       64.52889       10.28633
N        112.22403       63.44485        8.88559
C        111.82641       62.36862        7.98917
C        112.03727       60.96989        8.53970
O        111.72511       60.03041        7.82287
H        111.45517       63.99355        9.29440
H        112.34471       62.49182        7.01322
H        110.73444       62.45643        7.79640
N        112.53500       60.74070        9.78928
C        112.76399       59.40654       10.34084
C        111.98889       59.22827       11.64299
O        111.84348       60.18272       12.38341
C        114.28700       59.23345       10.55416
C        114.66446       57.84640       11.08665
O        114.98477       59.48152        9.35705
H        112.79670       61.54062       10.37679
H        112.43389       58.61876        9.62796
H        114.62128       59.99406       11.28887
H        114.57075       58.93400        8.63917
H        114.19306       57.65846       12.07342
H        114.34284       57.05805       10.37293
H        115.76505       57.78402       11.21724
N        111.50669       58.00598       12.00921
C        110.75497       57.75876       13.24216
C        111.58905       56.87797       14.16146
O        112.10381       55.86079       13.72085
C        109.37305       57.12838       12.90634
C        108.54872       58.12423       12.04737
C        108.60832       56.76877       14.20008
C        107.22430       57.56126       11.53173
H        111.68957       57.20122       11.39086
H        110.54632       58.70827       13.78210
H        109.54304       56.19424       12.32661
H        109.13689       58.41741       11.15179
H        108.34319       59.03953       12.64276
H        108.41628       57.67863       14.80902
H        107.64253       56.27556       13.97536
H        109.18465       56.04670       14.81426
H        106.53292       57.30900       12.35973
H        106.72373       58.32761       10.90250
H        107.40959       56.65906       10.91159
N        111.73455       57.21850       15.47650
C        112.57238       56.49821       16.43078
C        111.71450       55.83087       17.49273
O        110.50069       55.94512       17.44958
C        113.55006       57.49516       17.11477
C        114.37639       58.28495       16.10370
O        112.82590       58.39648       17.91449
H        111.21758       58.03128       15.83272
H        113.15914       55.70838       15.91391
H        114.25299       56.91221       17.75313
H        113.42869       58.69297       18.64597
H        113.70646       58.91357       15.48094
H        115.08113       58.95604       16.64018
H        114.95722       57.60066       15.45230
N        112.30103       55.12857       18.50250
C        111.56018       54.58253       19.63674
C        110.92049       55.70854       20.44026
O        109.73246       55.63221       20.72339
C        112.48052       53.74047       20.55803
C        113.01637       52.49416       19.84338
O        113.55585       54.51531       21.02555
H        113.32361       55.01023       18.48035
H        110.76205       53.89585       19.27256
H        111.85581       53.39164       21.41591
H        113.79227       54.17429       21.92727
H        113.64669       52.76528       18.97144
H        113.63239       51.89525       20.54689
H        112.17322       51.86115       19.49292
N        111.65541       56.79414       20.83035
C        111.12840       57.88897       21.65272
C        110.00361       58.68043       20.98899
O        109.45257       59.55489       21.64384
C        112.24564       58.89027       22.02376
C        113.38199       58.25800       22.83932
C        114.41277       59.32732       23.22903
C        115.57129       58.77054       24.07101
N        116.41245       57.83852       23.31694
H        112.64314       56.82584       20.54085
H        110.72679       57.44931       22.59274
H        111.80329       59.70390       22.64121
H        112.65820       59.34373       21.09459
H        113.87251       57.46585       22.24327
H        112.96159       57.80280       23.76270
H        113.89507       60.10413       23.83386
H        114.82281       59.81516       22.31739
H        115.17248       58.27304       24.98266
H        116.20012       59.62855       24.39624
H        116.79082       58.30835       22.46226
H        117.21410       57.54436       23.91981
H        115.87945       56.98241       23.04715
N        109.59416       58.43287       19.71647
C        108.50475       59.13969       19.06279
C        107.30122       58.21733       19.05198
O        106.25537       58.61533       19.54749
C        108.97079       59.64063       17.67721
C        110.15280       60.61991       17.85725
C        110.69708       61.17668       16.57679
O        111.11778       60.43720       15.70505
O        110.81373       62.50855       16.42599
H        110.04984       57.69465       19.17222
H        108.20109       60.04183       19.64106
H        108.13361       60.16082       17.16863
H        109.27989       58.77777       17.04796
H        110.98669       60.09890       18.36602
H        109.83191       61.46862       18.49984
N        107.40009       56.92932       18.62229
C        106.32002       55.98095       18.78923
H        105.42926       56.30210       18.21326
H        106.64138       54.97485       18.44445
H        106.05725       55.90214       19.86831
H        108.28453       56.58436       18.23200
Ca       112.72617       62.33022       13.80002
O        114.98411       60.27856       13.77903
H        115.70567       59.60174       13.75124
H        115.44833       61.14160       13.65324
O        114.05461       61.68306       16.65856
H        113.71404       62.60492       16.77407
H        113.59802       61.16201       17.36566

Ca 1.0



