%chk=holoCaM-CaMKII.loop4.water1.frame478.chk
%nprocshared=20
%mem=10GB
%nosave
#b3lyp/svp scf=(tight,noincore,xqc) Test 
#IOP(5/87=12) Density=Current Pop=(MK,readradii) iop(6/33=2) iop(6/42=6)

holoCaM-CaMKII.loop4.water1.frame478 

   -3  1 
C         86.97857       69.96760       56.33756
C         87.10313       70.10218       54.84911
O         86.55676       69.27268       54.13709
H         85.90423       69.99891       56.61869
H         87.41270       69.00032       56.66393
H         87.50225       70.79214       56.86526
N         87.78436       71.14666       54.30083
C         87.86223       71.35912       52.86285
C         88.67325       70.26068       52.18165
O         89.75684       69.94354       52.65244
C         88.50272       72.72439       52.53572
C         88.21208       73.13102       51.11363
O         88.73800       74.11998       50.64191
O         87.28358       72.46607       50.39956
H         88.20867       71.84529       54.93061
H         86.81368       71.38854       52.48829
H         89.59750       72.67863       52.72654
H         88.07090       73.52298       53.17746
N         88.22975       69.69042       51.02636
C         88.91987       68.62028       50.30885
C         89.49432       69.12275       48.96938
O         90.19248       68.35594       48.32315
C         87.92147       67.41863       50.13184
C         87.29977       67.02616       51.50316
C         88.57870       66.18784       49.47071
C         86.18069       65.98527       51.41297
H         87.34794       70.03014       50.63755
H         89.79006       68.27468       50.90921
H         87.09252       67.75973       49.47364
H         86.82529       67.91889       51.95654
H         88.09186       66.66435       52.19393
H         87.84925       65.36708       49.33210
H         88.93525       66.40541       48.44817
H         89.42456       65.81842       50.08826
H         85.74778       65.82628       52.42319
H         85.37457       66.34669       50.73963
H         86.55186       65.00550       51.05515
N         89.29094       70.39377       48.49870
C         89.82947       70.87521       47.22245
C         90.80815       72.03404       47.40030
O         91.33552       72.50053       46.39889
C         88.67625       71.33264       46.30713
C         87.66063       70.25252       46.06874
O         87.98633       69.20621       45.53186
O         86.37738       70.44534       46.42852
H         88.72513       71.05350       49.04251
H         90.38219       70.06439       46.69973
H         89.07903       71.65671       45.32280
H         88.17608       72.20449       46.76940
N         91.11158       72.55548       48.62521
C         92.04649       73.65576       48.81836
C         91.56332       75.01195       48.32054
O         92.29109       75.97416       48.52132
H         90.70704       72.13876       49.47508
H         93.02172       73.40068       48.34928
H         92.21863       73.77096       49.91073
N         90.36380       75.19381       47.69133
C         89.87644       76.51053       47.26712
C         89.44432       77.40855       48.43919
O         89.02417       78.52885       48.18486
C         88.73044       76.36394       46.23816
C         87.58022       75.54369       46.73490
O         87.21070       74.56570       46.10561
O         86.96212       75.87069       47.87862
H         89.77940       74.37361       47.48877
H         90.69039       77.03528       46.71918
H         89.13053       75.88556       45.31691
H         88.36001       77.37245       45.95460
N         89.53673       77.00877       49.73902
C         89.17366       77.84008       50.87517
C         87.68178       78.05954       51.01452
O         87.25826       79.19923       51.13188
H         89.93383       76.09090       49.96176
H         89.72847       78.80282       50.83864
H         89.48981       77.31115       51.80139
N         86.84548       76.98605       51.10109
C         85.42280       77.04206       51.46844
C         84.83817       75.64171       51.63403
O         85.46949       74.66998       51.24004
C         84.56552       77.94558       50.53282
C         84.67256       77.71555       49.01307
C         84.00897       76.46158       48.48526
N         83.01388       76.54729       47.57034
O         84.38515       75.36115       48.85028
H         87.28818       76.06747       50.98108
H         85.37618       77.49149       52.48517
H         84.90699       78.98736       50.69546
H         83.49868       77.92883       50.84389
H         85.73831       77.75425       48.71899
H         84.18574       78.58630       48.52302
H         82.68694       77.45994       47.22166
H         82.57418       75.69442       47.19476
N         83.65177       75.45616       52.28363
C         83.08355       74.13043       52.51047
C         81.67212       74.10691       51.95522
O         80.77921       74.65006       52.59356
C         83.11614       73.78169       54.03128
C         82.59653       72.36072       54.30343
C         84.53829       73.90759       54.60630
H         83.15764       76.27586       52.66952
H         83.68479       73.35919       51.98097
H         82.47073       74.50309       54.58069
H         82.59580       72.15530       55.39578
H         81.55728       72.23788       53.93712
H         83.24734       71.60906       53.81043
H         85.23623       73.21017       54.09532
H         84.91943       74.94413       54.49219
H         84.53451       73.67691       55.69367
N         81.39885       73.54518       50.73984
C         80.03988       73.51436       50.19992
C         79.17879       72.52013       50.97447
O         79.68247       71.87948       51.88654
C         79.99068       73.29311       48.66162
C         80.26323       71.90401       48.13207
N         81.49892       71.36420       48.13939
O         79.34680       71.27738       47.62134
H         82.18474       73.19573       50.18056
H         79.61248       74.53425       50.33086
H         80.65435       74.02404       48.15090
H         78.95701       73.55083       48.34469
H         82.30471       71.88026       48.50291
H         81.65550       70.43263       47.72764
N         77.86178       72.34192       50.66925
C         76.98733       71.44032       51.41601
C         77.50975       70.01367       51.42107
O         77.49455       69.38613       52.47012
C         75.55627       71.45248       50.83937
C         74.62414       70.66431       51.73260
C         74.36749       71.10844       53.04232
C         74.02247       69.47825       51.28165
C         73.53228       70.37680       53.88808
C         73.18846       68.74433       52.13291
C         72.94270       69.19173       53.44027
O         72.14642       68.49296       54.27398
H         77.45810       72.88172       49.88989
H         76.93966       71.80869       52.46426
H         75.58115       71.03067       49.80957
H         75.17352       72.49366       50.77059
H         74.81646       72.02209       53.41144
H         74.20924       69.11341       50.27939
H         73.34795       70.73085       54.89474
H         72.73803       67.82631       51.77777
H         71.72388       67.66399       54.00873
N         77.98973       69.44239       50.28232
C         78.53186       68.08742       50.23375
C         79.68086       67.93115       51.21753
O         79.62862       67.03507       52.04877
C         79.02892       67.73506       48.81104
C         77.89289       67.70336       47.77502
C         78.41423       67.32354       46.41836
O         77.96175       66.21132       45.80829
O         79.24051       68.02562       45.85689
H         77.99282       70.01277       49.42550
H         77.73350       67.35958       50.50388
H         79.48956       66.72165       48.83797
H         79.80929       68.46162       48.49299
H         77.40063       68.69398       47.69255
H         77.13135       66.95894       48.09408
N         80.75788       68.76648       51.17361
C         81.92519       68.60601       52.04572
C         81.60707       68.84705       53.51947
O         82.46132       68.56036       54.34687
C         83.06794       69.55514       51.61921
C         83.50419       69.31531       50.16619
C         84.54928       70.29313       49.73033
O         85.55983       69.89403       49.18211
O         84.35115       71.61635       49.87725
H         80.74732       69.51646       50.46799
H         82.28718       67.55921       51.93353
H         83.94929       69.41090       52.28367
H         82.71017       70.60367       51.72503
H         82.64830       69.45090       49.49176
H         83.87045       68.27459       50.03416
N         80.42214       69.38696       53.92369
C         80.06663       69.62056       55.30803
H         79.13272       69.06652       55.54180
H         80.85714       69.28979       56.01249
H         79.88369       70.70477       55.46176
H         79.73146       69.67084       53.22533
Ca        86.45079       73.08344       48.41292
O         83.96051       73.04078       46.49801
H         83.01380       73.32457       46.55359
H         83.92291       72.12875       46.11465

Ca 1.0



