%chk=holoCaM.loop2.water2.frame419.chk
%nprocshared=20
%mem=10GB
%nosave
#b3lyp/svp scf=(tight,noincore,xqc) Test 
#IOP(5/87=12) Density=Current Pop=(MK,readradii) iop(6/33=2) iop(6/42=6)

holoCaM.loop2.water2.frame419 

   -2  1 
C          2.16651      106.41346       43.29768
C          3.57874      106.80489       42.97995
O          4.50727      106.18168       43.47518
H          1.63901      106.14486       42.35631
H          2.13877      105.53796       43.97954
H          1.64146      107.26683       43.77381
N          3.80782      107.81808       42.10388
C          5.14080      108.18764       41.65220
C          5.87598      109.00004       42.71578
O          5.43328      110.09770       43.02661
C          5.00115      108.98809       40.34367
C          6.29381      109.25603       39.65394
O          6.29400      109.92938       38.64363
O          7.44771      108.75649       40.11565
H          2.98727      108.26888       41.66771
H          5.68822      107.25342       41.41153
H          4.49188      109.95319       40.55545
H          4.37554      108.41146       39.62704
N          6.99437      108.51674       43.33366
C          7.69885      109.26067       44.37815
C          8.49981      110.44720       43.84723
O          8.86587      111.29474       44.64978
C          8.64620      108.33568       45.15104
H          7.30266      107.56115       43.11036
H          6.93801      109.62690       45.10359
H          8.07549      107.48614       45.58319
H          9.43355      107.93299       44.47761
H          9.13334      108.88493       45.98553
N          8.88197      110.53583       42.53860
C          9.68898      111.62803       41.99579
C          8.98307      112.38608       40.86776
O          9.57613      113.31502       40.33610
C         11.11244      111.13819       41.62672
C         11.27958      109.94372       40.68372
O         10.63420      110.10463       39.45716
O         10.84804      108.73961       41.24948
H          8.62571      109.77653       41.90078
H          9.86433      112.40226       42.77535
H         11.63032      110.85328       42.56832
H         11.68052      111.99279       41.20051
N          7.68482      112.13427       40.52842
C          6.90805      112.98326       39.63402
C          7.26791      112.95280       38.15899
O          6.61896      113.68576       37.42534
H          7.16708      111.39900       41.02596
H          6.97599      114.03223       39.99905
H          5.84045      112.68080       39.70428
N          8.25027      112.16791       37.62551
C          8.55775      112.20322       36.19282
C          7.37865      111.71495       35.35202
O          6.95598      112.41782       34.44496
C          9.84334      111.42591       35.83240
C          9.71837      109.92704       35.86940
N          9.81121      109.21270       34.72328
O          9.52330      109.35278       36.92737
H          8.80555      111.56296       38.24494
H          8.79309      113.25865       35.92573
H         10.68533      111.74899       36.48193
H         10.10466      111.71902       34.79250
H          9.94903      109.67708       33.81397
H          9.72721      108.19048       34.73756
N          6.78531      110.52120       35.63754
C          5.61724      109.99235       34.95311
C          5.59289      108.46836       34.88656
O          4.57176      107.94228       34.47014
H          7.10352      110.03278       36.47831
H          5.49820      110.43388       33.93928
H          4.73012      110.28428       35.55507
N          6.64846      107.69073       35.28501
C          6.60875      106.22758       35.34368
C          6.99877      105.75710       36.74390
O          7.32406      106.58465       37.58410
C          7.56000      105.61531       34.28725
C          7.21484      106.09843       32.87440
O          8.89024      105.94102       34.58765
H          7.52676      108.13486       35.56822
H          5.58156      105.86105       35.12710
H          7.43860      104.50813       34.31766
H          9.46652      105.30598       34.08758
H          7.34416      107.19890       32.79210
H          7.88800      105.61413       32.13629
H          6.16562      105.83572       32.62362
N          6.98248      104.42851       37.06390
C          7.38705      103.91553       38.37339
C          8.46895      102.84436       38.24933
O          8.46606      102.07717       37.29800
C          6.16102      103.42027       39.19666
C          5.34793      102.32306       38.46475
C          5.27735      104.62712       39.56821
C          4.21069      101.74537       39.31150
H          6.65052      103.75525       36.35884
H          7.84252      104.72952       38.97689
H          6.54742      102.99494       40.14754
H          6.02384      101.48202       38.20474
H          4.91302      102.72901       37.52638
H          5.88561      105.38729       40.09334
H          4.83441      105.09468       38.66416
H          4.46639      104.34373       40.26744
H          3.69676      100.94351       38.74163
H          4.61285      101.31429       40.25191
H          3.44993      102.51455       39.55465
N          9.39784      102.71546       39.24354
C         10.44417      101.69313       39.30055
C         10.11783      100.73989       40.45566
O          9.08102      100.91803       41.06255
C         11.80607      102.41707       39.41566
C         13.00053      101.50770       39.36342
O         13.19265      100.79693       38.38927
O         13.87721      101.48658       40.38562
H          9.34190      103.36096       40.04284
H         10.44570      101.08685       38.36840
H         11.83184      103.01353       40.35302
H         11.90018      103.11873       38.55768
N         10.89254       99.66358       40.77664
C         10.45730       98.62266       41.71355
C         10.07461       99.10650       43.11889
O          8.98392       98.74230       43.53942
C         11.47633       97.45979       41.75612
C         10.91653       96.20368       42.39791
C          9.75805       95.59274       41.87412
C         11.55788       95.60762       43.49771
C          9.24946       94.42355       42.44425
C         11.04896       94.42921       44.05926
C          9.89515       93.84014       43.53460
H         11.77106       99.51097       40.26737
H          9.53286       98.20139       41.26570
H         12.41116       97.79382       42.25493
H         11.73392       97.18058       40.71149
H          9.24363       96.01298       41.02030
H         12.45625       96.04462       43.91396
H          8.35705       93.96681       42.03459
H         11.55074       93.96801       44.89982
H          9.50284       92.92907       43.96849
N         10.84662       99.91435       43.91573
C         10.44379      100.33188       45.25789
C          9.15287      101.13872       45.22936
O          8.30059      100.91256       46.07675
C         11.66427      101.09951       45.78353
C         12.28593      101.66308       44.52743
C         12.11739      100.50562       43.53823
H         10.28769       99.46779       45.94315
H         11.46077      101.82090       46.60505
H         12.39470      100.34901       46.16334
H         11.65745      102.51825       44.20345
H         13.32657      102.03649       44.63369
H         12.12852      100.94097       42.52111
H         12.91290       99.73926       43.65532
N          8.90666      102.03247       44.23503
C          7.65836      102.77956       44.09811
C          6.48248      101.81678       43.98110
O          5.56527      101.89902       44.78602
C          7.74891      103.70320       42.86213
C          8.83469      104.78335       43.04528
C          9.07548      105.54291       41.77478
O          8.07273      106.20452       41.17609
O         10.18836      105.55696       41.27268
H          9.62469      102.14724       43.50868
H          7.50145      103.42248       44.99351
H          6.77389      104.20756       42.68062
H          7.98664      103.08030       41.97763
H          9.80111      104.33109       43.34902
H          8.52190      105.48098       43.85021
N          6.46391      100.84976       43.02511
C          5.40426       99.87506       42.90122
H          4.44170      100.38152       42.68512
H          5.63595       99.17638       42.06690
H          5.32185       99.28353       43.83741
H          7.24369      100.77857       42.37246
Ca         9.90234      107.94755       39.34964
O         12.74282      107.11501       39.11046
H         12.94354      106.47332       38.38413
H         13.22609      106.76003       39.89798
O         10.51926      105.45782       37.48749
H         11.17495      105.30150       36.76287
H          9.84697      106.05856       37.08173

Ca 1.0



