%chk=holoCaM-CaMKII.loop1.water2.frame383.chk
%nprocshared=20
%mem=10GB
%nosave
#b3lyp/svp scf=(tight,noincore,xqc) Test 
#IOP(5/87=12) Density=Current Pop=(MK,readradii) iop(6/33=2) iop(6/42=6)

holoCaM-CaMKII.loop1.water2.frame383 

   0  1 
C         55.23638       69.23275       66.45501
C         54.16074       68.30144       66.93264
O         53.02042       68.72038       66.99874
H         56.22554       68.72909       66.41783
H         54.98916       69.60253       65.43860
H         55.31044       70.09331       67.15267
N         54.46287       67.01406       67.25645
C         53.53025       66.00498       67.76807
C         53.15541       66.28882       69.23663
O         53.56805       65.53914       70.11089
C         54.24282       64.62942       67.61464
C         53.46436       63.41146       68.01519
O         52.31956       63.48608       68.42429
O         54.05821       62.20935       67.91565
H         55.43921       66.72088       67.09404
H         52.61781       65.96307       67.13054
H         55.17879       64.63824       68.21238
H         54.51735       64.49422       66.54497
N         52.38311       67.35879       69.59227
C         52.04785       67.68778       70.97903
C         51.00209       66.75671       71.59461
O         50.70199       66.92809       72.76818
C         51.55631       69.15030       71.07954
C         52.66976       70.14375       70.70144
C         52.23229       71.59378       70.95331
C         53.38655       72.60014       70.79887
N         53.88749       72.68581       69.42680
H         52.03136       67.98501       68.86577
H         52.97301       67.61687       71.59330
H         51.27662       69.35366       72.13659
H         50.65562       69.30628       70.44421
H         52.96168       70.00867       69.63911
H         53.55267       69.93177       71.34309
H         51.88121       71.67176       72.00550
H         51.38688       71.86524       70.28403
H         54.21691       72.32051       71.48569
H         53.01708       73.60307       71.10690
H         53.11854       72.98180       68.78315
H         54.64870       73.40231       69.39340
H         54.28684       71.77270       69.11528
N         50.41688       65.75191       70.88456
C         49.42703       64.82290       71.43688
C         49.97945       63.40643       71.56251
O         49.26110       62.54239       72.04705
C         48.11484       64.86546       70.61109
C         48.25476       64.52177       69.14045
O         49.46573       64.23694       68.61610
O         47.26960       64.55140       68.42407
H         50.70880       65.62535       69.91267
H         49.16052       65.12090       72.47538
H         47.69810       65.89414       70.68507
H         47.37727       64.17417       71.07594
N         51.26329       63.10355       71.21530
C         51.87875       61.80936       71.44628
C         51.33325       60.65980       70.62682
O         51.83586       59.56183       70.82463
H         51.87887       63.83955       70.85387
H         51.78960       61.56215       72.52609
H         52.96233       61.88729       71.20663
N         50.33746       60.78889       69.69718
C         49.84511       59.62851       68.95281
C         50.89950       59.03446       68.01633
O         50.64982       57.97073       67.46702
C         48.51476       59.94148       68.22144
C         48.58659       60.94734       67.11188
O         47.45983       61.30870       66.47106
O         49.64637       61.43339       66.77499
H         49.89787       61.70581       69.54040
H         49.58847       58.84960       69.70389
H         47.79284       60.32219       68.97475
H         48.10370       59.00404       67.79067
N         52.09007       59.66319       67.78013
C         53.14577       59.11496       66.94584
C         53.32517       59.88327       65.65664
O         54.20296       59.50281       64.89514
H         52.26876       60.58296       68.19784
H         52.92587       58.06398       66.66072
H         54.09507       59.10953       67.52545
N         52.53142       60.94550       65.31753
C         52.57837       61.59125       64.00808
C         51.92926       63.01495       64.03782
O         52.25994       63.66305       65.23215
C         51.83086       60.72145       62.94014
C         52.43083       59.34040       62.64854
O         50.47523       60.57715       63.28347
H         51.86560       61.30882       66.00452
H         53.64965       61.74322       63.74251
H         51.87025       61.24961       61.96860
H         50.42740       60.05032       64.12460
H         51.86588       58.86157       61.82095
H         53.49194       59.43807       62.33717
H         52.34658       58.66295       63.52189
N         52.47377       63.79599       62.91291
C         52.12979       65.22898       62.83252
C         50.99492       65.44079       61.83268
O         51.04146       64.85716       60.75723
C         53.38852       66.03382       62.38038
C         54.64655       65.63292       63.20091
C         53.11664       67.54883       62.51299
C         55.93277       66.30644       62.71283
H         52.47316       63.31615       61.98641
H         51.85460       65.61973       63.83648
H         53.59732       65.78675       61.31539
H         54.81761       64.54047       63.09172
H         54.49703       65.85400       64.27992
H         52.23123       67.84897       61.92317
H         52.94011       67.81697       63.57850
H         53.96201       68.15330       62.13190
H         55.90672       67.40285       62.86975
H         56.79835       65.90858       63.28284
H         56.09380       66.09088       61.63434
N         49.99750       66.33679       62.07543
C         48.92540       66.62024       61.12047
C         49.10021       68.00559       60.52595
O         50.00987       68.71938       60.91682
C         47.53487       66.50956       61.80728
C         47.29515       65.13675       62.43564
O         47.35314       67.52526       62.76368
H         50.03763       66.88658       62.94253
H         48.95869       65.89733       60.27590
H         46.74445       66.64537       61.03967
H         47.89291       67.30048       63.56348
H         48.04510       64.95858       63.23115
H         46.28211       65.10512       62.89131
H         47.37232       64.33752       61.67030
N         48.24181       68.46350       59.57612
C         48.26510       69.83544       59.07106
C         48.04251       70.81655       60.21137
O         48.76608       71.79727       60.30269
C         47.18308       70.05114       57.98133
C         47.53821       69.29791       56.69189
O         45.92341       69.64627       58.45756
H         47.50941       67.82131       59.23590
H         49.25085       70.06300       58.60440
H         47.15543       71.13810       57.73379
H         45.25021       69.94012       57.78996
H         46.76975       69.49536       55.91460
H         48.51493       69.65951       56.30284
H         47.60127       68.20408       56.86342
N         47.06401       70.58872       61.13150
C         46.74623       71.50292       62.22636
C         47.96888       71.77855       63.08219
O         48.32018       72.93485       63.27265
C         45.61086       70.94382       63.13078
C         44.33083       70.48853       62.39811
C         43.71936       71.55885       61.48721
C         42.51669       70.98720       60.72442
N         41.96002       71.97810       59.80557
H         46.53152       69.71576       61.03868
H         46.39597       72.46525       61.79356
H         45.34331       71.73146       63.86954
H         45.97991       70.06157       63.69866
H         43.58259       70.17606       63.15935
H         44.55102       69.58839       61.79034
H         44.46941       71.87866       60.73436
H         43.41291       72.43948       62.09257
H         41.73206       70.66015       61.44210
H         42.84622       70.09986       60.13714
H         41.16695       71.54645       59.27844
H         41.60742       72.80476       60.33962
H         42.69066       72.28309       59.12145
N         48.67234       70.74482       63.61700
C         49.84577       70.90746       64.46956
C         50.93107       71.69520       63.75508
O         51.33060       72.73310       64.26396
C         50.36766       69.52478       64.91795
C         49.35883       68.82374       65.85070
C         49.80863       67.44786       66.23963
O         49.99456       67.13772       67.53488
O         49.96383       66.58961       65.38886
H         48.35377       69.79248       63.39121
H         49.56051       71.47337       65.38509
H         51.31828       69.65503       65.47101
H         50.57297       68.90171       64.02097
H         48.36783       68.72571       65.36565
H         49.22974       69.43900       66.76702
N         51.43561       71.27588       62.56308
C         52.44414       72.00078       61.81617
H         53.32468       71.34536       61.65318
H         52.02772       72.29425       60.82913
H         52.78123       72.92056       62.33861
H         51.07806       70.40963       62.15040
Ca        50.37118       63.97985       66.53193
O         47.11759       65.11504       65.71489
H         46.61611       65.93295       65.95880
H         46.48368       64.37324       65.88497
O         48.64678       62.66551       64.12866
H         48.84219       62.56527       63.16361
H         47.65975       62.72453       64.17321

Ca 1.0



