%chk=holoCaM-CaMKII.loop1.water2.frame199.chk
%nprocshared=20
%mem=10GB
%nosave
#b3lyp/svp scf=(tight,noincore,xqc) Test 
#IOP(5/87=12) Density=Current Pop=(MK,readradii) iop(6/33=2) iop(6/42=6)

holoCaM-CaMKII.loop1.water2.frame199 

   0  1 
C         14.12715       60.61269       39.83881
C         13.95991       61.10825       41.24242
O         14.91942       61.59126       41.82659
H         15.17361       60.75166       39.49372
H         13.86680       59.53546       39.78845
H         13.45240       61.18404       39.16590
N         12.73871       61.04414       41.83968
C         12.48270       61.58019       43.16976
C         13.27220       60.80210       44.22241
O         12.96596       59.64582       44.47673
C         10.96165       61.56512       43.42745
C         10.51787       62.23989       44.68616
O         11.39772       62.78276       45.54816
O          9.32452       62.31655       44.91645
H         11.95444       60.65167       41.29426
H         12.80743       62.64279       43.15486
H         10.59093       60.51699       43.43066
H         10.46835       62.10536       42.58834
N         14.36349       61.37185       44.81093
C         15.25884       60.67635       45.73480
C         14.64042       60.38097       47.09265
O         15.08999       59.44634       47.74045
C         16.58660       61.46037       45.91205
C         16.43038       62.82397       46.62375
C         17.71076       63.67617       46.59837
C         18.87809       63.06469       47.38265
N         20.04306       63.94956       47.34253
H         14.63331       62.30581       44.48742
H         15.53516       59.71058       45.25544
H         17.01455       61.62587       44.89852
H         17.30010       60.83257       46.48621
H         16.09701       62.67757       47.67281
H         15.65540       63.41930       46.11175
H         17.46898       64.66605       47.04450
H         18.02506       63.84316       45.54599
H         19.16012       62.08287       46.94683
H         18.56938       62.91047       48.43999
H         20.82231       63.51703       47.88876
H         20.35793       64.08502       46.35394
H         19.80774       64.87709       47.76525
N         13.69172       61.19650       47.63356
C         13.15572       61.03174       48.98539
C         11.65071       60.78677       48.99758
O         11.09800       60.65401       50.08127
C         13.56070       62.24598       49.85387
C         13.23134       63.57399       49.23649
O         14.21796       64.45406       48.97928
O         12.08028       63.86126       48.96364
H         13.36515       62.00308       47.08148
H         13.59378       60.14021       49.48394
H         14.66097       62.21150       50.00708
H         13.08333       62.17434       50.85552
N         10.92422       60.65852       47.85205
C          9.50306       60.35680       47.84387
C          8.68729       61.43628       48.51448
O          7.94366       61.13594       49.43713
H         11.39027       60.73091       46.93923
H          9.32747       59.37516       48.33597
H          9.16128       60.26961       46.78928
N          8.76499       62.71986       48.07175
C          7.95788       63.82081       48.58653
C          7.03824       64.38107       47.50157
O          6.42736       65.41853       47.71844
C          8.86696       64.90078       49.22026
C          9.84332       65.60119       48.30814
O         10.64547       66.55259       48.82189
O          9.93900       65.31839       47.12627
H          9.41892       62.92308       47.30645
H          7.29405       63.47358       49.40857
H          9.44699       64.42299       50.04003
H          8.21838       65.67797       49.67813
N          6.83046       63.70190       46.33464
C          5.92279       64.13429       45.28703
C          6.43031       65.28065       44.43863
O          5.73783       65.60820       43.48524
H          7.26146       62.77817       46.20274
H          4.92582       64.36912       45.71848
H          5.78929       63.28256       44.58384
N          7.61082       65.92622       44.68053
C          8.13767       66.96486       43.79635
C          9.57206       66.61040       43.31726
O          9.74876       65.22511       43.30872
C          8.12445       68.34325       44.49713
C          6.70055       68.80132       44.84041
O          8.92919       68.34030       45.64904
H          8.17028       65.66905       45.49957
H          7.49439       67.04284       42.89202
H          8.54099       69.09919       43.79660
H          8.47396       67.80664       46.35097
H          6.08366       68.85504       43.91870
H          6.21956       68.09927       45.55435
H          6.73365       69.80977       45.30433
N          9.80288       67.13056       41.95730
C         11.18935       67.05134       41.43805
C         11.88796       68.41012       41.51885
O         11.29392       69.41907       41.17075
C         11.16599       66.49509       39.97888
C         10.57895       65.05455       39.98001
C         12.58055       66.49351       39.35787
C         10.43932       64.43097       38.58830
H          9.35897       68.06060       41.78196
H         11.79434       66.32068       42.00401
H         10.52060       67.15345       39.35709
H          9.56300       65.07620       40.42719
H         11.21531       64.38585       40.60291
H         12.56925       66.13972       38.30890
H         12.97634       67.52355       39.30700
H         13.27673       65.85819       39.94805
H         11.42491       64.27971       38.10359
H          9.96694       63.43027       38.67997
H          9.80125       65.06966       37.94250
N         13.21023       68.46891       41.85396
C         14.00937       69.69364       41.84275
C         14.98580       69.63308       40.68220
O         15.06282       68.62805       40.00081
C         14.80537       69.86635       43.16962
C         13.88364       69.95662       44.38689
O         15.70885       68.79826       43.31332
H         13.69991       67.58602       42.01969
H         13.35566       70.57846       41.68852
H         15.38594       70.81373       43.11991
H         16.10305       68.83313       44.22380
H         13.16764       70.79644       44.27640
H         13.33853       69.00416       44.50045
H         14.48549       70.12987       45.30654
N         15.77904       70.70022       40.40631
C         16.79623       70.67662       39.35929
C         17.86521       69.63992       39.68247
O         18.21624       68.84726       38.81823
C         17.44074       72.07728       39.19589
C         16.41354       73.10810       38.70334
O         18.00300       72.50508       40.41019
H         15.66195       71.54984       40.97474
H         16.33124       70.42399       38.37950
H         18.23876       71.98973       38.42159
H         18.61250       73.25883       40.19713
H         16.90789       74.09020       38.55102
H         15.97894       72.78270       37.73417
H         15.58963       73.24504       39.43410
N         18.42468       69.60309       40.92191
C         19.52503       68.72436       41.31994
C         19.15898       67.25756       41.14110
O         19.89124       66.54507       40.47023
C         19.96502       69.03742       42.77251
C         20.46002       70.50189       42.88388
C         20.94033       70.92656       44.27524
C         22.24269       70.23894       44.70163
N         22.72944       70.80068       45.96179
H         18.03626       70.25238       41.62063
H         20.40670       68.93410       40.67309
H         20.79423       68.34998       43.04290
H         19.12051       68.86587       43.47673
H         19.63573       71.19659       42.63195
H         21.27800       70.67871       42.15196
H         20.13941       70.75665       45.02764
H         21.13954       72.02013       44.22493
H         23.01504       70.40110       43.91663
H         22.08117       69.14640       44.81968
H         22.02642       70.64899       46.72080
H         23.62576       70.33152       46.22432
H         22.90985       71.82585       45.85096
N         17.99881       66.76271       41.65419
C         17.50865       65.40040       41.41999
C         17.50203       65.09388       39.92801
O         18.13392       64.12572       39.52584
C         16.09176       65.26382       42.02118
C         16.12357       65.20447       43.56659
C         14.76198       65.49684       44.12118
O         14.30053       66.61282       44.00195
O         13.98462       64.55553       44.66678
H         17.40186       67.41875       42.17401
H         18.17711       64.65591       41.90760
H         15.58494       64.33879       41.66439
H         15.49336       66.12566       41.65443
H         16.82033       65.95107       44.00153
H         16.46522       64.18747       43.85028
N         16.86165       65.90041       39.04092
C         16.92313       65.67797       37.61168
H         17.98181       65.70548       37.27179
H         16.47816       64.69423       37.35455
H         16.36685       66.47776       37.07774
H         16.34856       66.71877       39.38461
Ca        11.88467       65.00319       44.02928
O         14.37921       67.04252       47.22498
H         15.01764       67.78733       47.35782
H         14.94993       66.23729       47.15039
O         11.67544       68.12239       46.21962
H         11.36883       68.79216       45.55792
H         12.08177       68.66415       46.94113

Ca 1.0



