%chk=holoCaM.loop4.water3.frame10.chk
%nprocshared=20
%mem=10GB
%nosave
#b3lyp/svp scf=(tight,noincore,xqc) Test 
#IOP(5/87=12) Density=Current Pop=(MK,readradii) iop(6/33=2) iop(6/42=6)

holoCaM.loop4.water3.frame10 

   -3  1 
C         88.39548       50.65136       56.24789
C         88.43814       50.44416       54.76209
O         87.53741       49.79874       54.24198
H         87.45275       51.18208       56.50860
H         88.41314       49.67519       56.77297
H         89.24570       51.27241       56.59889
N         89.41711       51.01521       54.00034
C         89.33489       51.06424       52.54649
C         90.69482       51.01962       51.86056
O         91.64106       51.62676       52.34906
C         88.63904       52.38474       52.18147
C         88.42302       52.51449       50.70729
O         87.76482       51.67864       50.10854
O         88.96526       53.55059       50.04111
H         90.10873       51.61958       54.47226
H         88.69900       50.23271       52.16177
H         89.24610       53.24149       52.54683
H         87.65088       52.43061       52.68331
N         90.80251       50.44809       50.62530
C         91.98227       50.52146       49.77058
C         91.61526       51.23458       48.46605
O         92.16486       52.29112       48.19597
C         92.54450       49.09021       49.48036
C         93.00756       48.34818       50.75979
C         93.66708       49.10358       48.42054
C         94.23908       48.94230       51.44923
H         89.97128       49.98308       50.23786
H         92.78001       51.12034       50.26199
H         91.72104       48.47628       49.05757
H         93.25049       47.29717       50.48693
H         92.17407       48.31799       51.49038
H         94.52023       49.73544       48.74084
H         94.02616       48.07013       48.22857
H         93.29646       49.50038       47.45229
H         94.05276       49.98167       51.78349
H         94.48649       48.32870       52.34068
H         95.12169       48.92055       50.77721
N         90.76011       50.65387       47.56884
C         90.59282       51.14714       46.19831
C         89.62877       52.31453       46.04796
O         89.58834       52.89097       44.96816
C         90.17651       49.98753       45.26160
C         88.85303       49.33938       45.59604
O         88.10835       49.75463       46.63890
O         88.45527       48.40831       44.91523
H         90.37593       49.73161       47.80737
H         91.59031       51.48765       45.84129
H         90.96267       49.20308       45.31009
H         90.13137       50.36073       44.21551
N         88.78662       52.69154       47.04526
C         87.81738       53.76757       46.90763
C         86.85269       53.49602       45.77487
O         86.73301       54.31843       44.87866
H         88.80739       52.17317       47.93020
H         88.34394       54.73296       46.74458
H         87.23488       53.85194       47.85058
N         86.11851       52.35127       45.77043
C         85.13763       52.01990       44.73921
C         83.75910       52.48560       45.16644
O         83.05847       53.10104       44.37523
C         85.16757       50.51358       44.38337
C         84.65246       49.59244       45.45873
O         85.23113       49.55457       46.67119
O         83.70250       48.86060       45.22774
H         86.23614       51.71660       46.57073
H         85.40453       52.53854       43.79032
H         86.20693       50.22202       44.12228
H         84.53770       50.36143       43.47825
N         83.35048       52.29288       46.44874
C         82.08753       52.74848       46.99676
C         81.43696       51.67999       47.85043
O         80.54505       52.02183       48.61338
H         84.00816       51.85954       47.11130
H         81.39039       53.14775       46.22929
H         82.33806       53.58029       47.69011
N         81.86717       50.38237       47.82762
C         81.46684       49.37905       48.80701
C         82.74944       48.84381       49.51052
O         83.64046       49.92796       49.61692
C         80.68564       48.25253       48.11036
C         79.38150       48.79233       47.49644
C         78.61646       47.71606       46.77600
N         79.14057       47.10992       45.68528
O         77.50300       47.40081       47.16823
H         82.56198       50.08905       47.13216
H         80.81729       49.84381       49.58274
H         80.42383       47.45915       48.84220
H         81.32919       47.80321       47.32304
H         79.59505       49.60588       46.77051
H         78.75368       49.21257       48.31390
H         80.07003       47.37624       45.32895
H         78.60994       46.38076       45.18655
N         82.42856       48.28474       50.83714
C         83.46458       47.41822       51.44580
C         83.49861       46.02248       50.80709
O         82.44887       45.41710       50.64201
C         83.20530       47.31104       52.97647
C         84.32779       46.52221       53.67921
C         83.11573       48.70512       53.62331
H         81.51307       47.77906       50.83494
H         84.45507       47.89384       51.36311
H         82.23696       46.79239       53.14965
H         85.31196       47.01792       53.52325
H         84.13494       46.46320       54.77136
H         84.38802       45.48520       53.29503
H         82.29302       49.30200       53.17703
H         82.91075       48.61348       54.71091
H         84.06798       49.25757       53.49665
N         84.69313       45.41846       50.52148
C         84.83502       44.06565       49.97310
C         85.39834       43.11769       51.03091
O         85.80123       43.56418       52.09583
C         85.74113       44.14755       48.72078
C         86.06206       42.84093       48.03787
N         85.08827       42.08012       47.48905
O         87.22643       42.47709       47.95925
H         85.55589       45.92342       50.75513
H         83.83607       43.66673       49.69276
H         86.70117       44.62520       49.02268
H         85.24551       44.79782       47.97466
H         84.10209       42.37208       47.53377
H         85.32558       41.19468       47.01717
N         85.36451       41.76670       50.82656
C         85.75898       40.78768       51.83846
C         87.23630       40.83772       52.18961
O         87.58001       40.42720       53.28974
C         85.27611       39.36937       51.45351
C         85.80722       38.85987       50.12869
C         87.15263       38.48418       49.97508
C         84.93701       38.73979       49.02883
C         87.61569       37.99974       48.74620
C         85.40371       38.26536       47.80087
C         86.74159       37.89093       47.65435
O         87.17234       37.42527       46.46448
H         84.94467       41.42131       49.95428
H         85.20497       41.05291       52.76770
H         84.16698       39.43562       51.39049
H         85.50378       38.63539       52.25645
H         87.84174       38.54958       50.80606
H         83.89512       39.02250       49.11627
H         88.65268       37.70586       48.64457
H         84.72201       38.18669       46.96286
H         88.08734       37.14522       46.32072
N         88.16914       41.33233       51.32735
C         89.56191       41.53506       51.71877
C         89.61135       42.64625       52.74609
O         90.15336       42.46928       53.82761
C         90.43488       41.95931       50.51449
C         90.57811       40.84945       49.46708
C         91.48038       41.29555       48.35131
O         92.63028       40.63765       48.10883
O         91.17822       42.25613       47.66069
H         87.87349       41.60952       50.38050
H         89.99494       40.59691       52.13374
H         91.45513       42.20158       50.89057
H         90.01909       42.87267       50.03447
H         89.58812       40.57788       49.04477
H         91.01677       39.94968       49.95102
N         89.04405       43.84136       52.43195
C         89.06427       45.03250       53.27244
C         88.27966       44.87803       54.57409
O         88.31333       45.81077       55.36569
C         88.45720       46.19623       52.46521
C         89.29473       46.55899       51.21289
C         88.53484       47.47679       50.29926
O         87.22369       47.65797       50.50828
O         89.06697       47.95868       49.31463
H         88.58873       43.90729       51.50879
H         90.11935       45.27737       53.52605
H         88.36147       47.11477       53.08661
H         87.43398       45.87337       52.17494
H         89.57292       45.67145       50.60936
H         90.22697       47.04675       51.56156
N         87.54549       43.76514       54.86999
C         86.79490       43.61108       56.10134
H         85.72083       43.46576       55.86154
H         87.16539       42.71885       56.64812
H         86.88545       44.49154       56.77195
H         87.49113       42.98499       54.20466
Ca        85.77380       49.21772       49.86857
O         86.13651       47.11195       47.57284
H         86.76563       47.19826       46.81435
H         85.25070       46.98884       47.14627
O         85.52866       51.15942       52.13627
H         85.84131       50.23004       52.27170
H         84.56129       51.07749       51.94721
O         85.14267       52.60887       49.36066
H         84.23433       52.99948       49.33635
H         85.67911       53.27018       49.86444

Ca 1.0



