%chk=holoCaM-CaMKII.loop3.water2.frame37.chk
%nprocshared=20
%mem=10GB
%nosave
#b3lyp/svp scf=(tight,noincore,xqc) Test 
#IOP(5/87=12) Density=Current Pop=(MK,readradii) iop(6/33=2) iop(6/42=6)

holoCaM-CaMKII.loop3.water2.frame37 

   0  1 
C         23.86796       73.81367       18.56847
C         23.42081       72.72908       17.63558
O         23.07782       71.64631       18.08969
H         24.90853       74.11154       18.32201
H         23.20091       74.69459       18.45567
H         23.83083       73.46965       19.62368
N         23.38260       72.96689       16.29582
C         22.91918       71.97807       15.32491
C         23.89423       70.78979       15.27074
O         24.93483       70.84296       15.91259
C         22.79013       72.67536       13.94057
C         21.87654       72.01564       12.94075
O         21.77585       72.49204       11.82192
O         21.10454       70.96699       13.27432
H         23.65494       73.90762       15.96888
H         21.90809       71.65094       15.65570
H         23.80763       72.80997       13.51234
H         22.34980       73.68618       14.08031
N         23.63044       69.69155       14.51040
C         24.51494       68.54264       14.37446
C         25.03240       68.45273       12.93981
O         26.21601       68.19230       12.77617
C         23.76459       67.28010       14.85105
C         24.63405       66.01288       14.88310
C         23.87550       64.84923       15.54584
C         24.74523       63.58627       15.63060
N         24.03843       62.50552       16.31998
H         22.74734       69.64048       14.00529
H         25.40049       68.64653       15.04043
H         22.87827       67.09423       14.21817
H         23.41781       67.48100       15.89005
H         25.55048       66.21663       15.47848
H         24.93102       65.73406       13.84867
H         22.94964       64.62383       14.97236
H         23.58773       65.14951       16.57804
H         25.68009       63.81738       16.18826
H         25.02042       63.25322       14.60543
H         23.16768       62.25129       15.79969
H         24.66037       61.66622       16.37073
H         23.79375       62.79907       17.29400
N         24.23155       68.71127       11.85781
C         24.70522       68.66092       10.47070
C         24.64024       70.00542        9.73616
O         25.03948       70.03584        8.57932
C         23.95039       67.56037        9.68972
C         22.46392       67.75401        9.55010
O         21.80804       66.93315        8.93045
O         21.84130       68.80863       10.09695
H         23.24787       68.95657       12.02036
H         25.77732       68.36920       10.44897
H         24.12248       66.58894       10.19910
H         24.38173       67.49237        8.66732
N         24.20261       71.16071       10.32075
C         24.22539       72.44531        9.62337
C         23.27730       72.55188        8.43706
O         23.36979       73.54333        7.72612
H         23.91344       71.15287       11.30666
H         25.26353       72.62595        9.26775
H         23.97089       73.26592       10.32909
N         22.33770       71.60021        8.15609
C         21.46448       71.65131        6.97918
C         20.51698       72.85237        6.96049
O         19.84480       73.04125        5.95659
C         20.68250       70.32103        6.82836
C         19.56837       70.14530        7.83494
N         18.32278       69.79382        7.43806
O         19.79207       70.30711        9.02028
H         22.27538       70.78506        8.77291
H         22.13682       71.72527        6.09592
H         21.40718       69.48460        6.93865
H         20.25538       70.24918        5.80525
H         18.10993       69.62374        6.44479
H         17.57227       69.66063        8.13265
N         20.41295       73.70293        8.02370
C         19.58686       74.89682        8.03744
C         18.57048       74.87425        9.15391
O         17.95995       75.91043        9.38426
H         20.95482       73.52829        8.87958
H         19.05614       75.06321        7.07432
H         20.26448       75.76096        8.20285
N         18.27890       73.73400        9.85049
C         17.26413       73.68240       10.89714
C         17.80850       72.98227       12.13448
O         18.89653       72.43254       12.07095
C         16.01083       72.93123       10.38353
C         15.46190       73.50915        9.09538
C         16.14318       73.31644        7.87679
C         14.25920       74.23346        9.09268
C         15.64699       73.85783        6.69024
C         13.76434       74.77705        7.90185
C         14.46026       74.59406        6.69738
O         13.99893       75.11724        5.54379
H         18.73194       72.84680        9.58256
H         16.95652       74.71390       11.17875
H         15.23954       72.98293       11.18251
H         16.23233       71.86068       10.19897
H         17.05975       72.74254        7.83675
H         13.71085       74.39000       10.01283
H         16.18821       73.70422        5.76459
H         12.84180       75.34271        7.91708
H         13.18517       75.63913        5.50425
N         17.10710       72.95976       13.30279
C         17.50585       72.17945       14.47900
C         16.30398       71.36963       14.95036
O         15.21449       71.92236       15.03780
C         18.08018       73.07610       15.61769
C         19.29044       73.88739       15.08135
C         18.51724       72.18650       16.80756
C         19.98154       74.77547       16.11896
H         16.24236       73.52106       13.36007
H         18.33106       71.47716       14.21736
H         17.29706       73.78304       15.96832
H         18.94542       74.54781       14.25804
H         20.04712       73.18989       14.67201
H         18.89221       72.79099       17.65616
H         17.66344       71.60634       17.20761
H         19.31366       71.47462       16.49525
H         19.25796       75.48919       16.56373
H         20.45422       74.17121       16.92034
H         20.79584       75.34779       15.62612
N         16.44126       70.06779       15.32878
C         15.33092       69.22707       15.76621
C         15.42574       68.93799       17.25242
O         16.35845       69.38967       17.89669
C         15.34690       67.91263       14.96716
O         15.24586       68.17230       13.59310
H         17.38472       69.66093       15.34714
H         14.36003       69.74113       15.59439
H         14.49763       67.25974       15.25502
H         16.27804       67.33893       15.19791
H         16.15371       68.05335       13.21056
N         14.46377       68.20304       17.87504
C         14.49921       67.87769       19.29752
C         15.70275       67.01485       19.62838
O         16.46764       67.37114       20.51310
C         13.21699       67.14333       19.70398
H         13.66444       67.87024       17.31316
H         14.53614       68.81862       19.89186
H         12.33557       67.78725       19.49721
H         13.10248       66.19269       19.14108
H         13.23598       66.91819       20.79191
N         15.93214       65.86441       18.93431
C         17.05021       64.96199       19.19491
C         18.38003       65.68535       19.13734
O         19.16632       65.55760       20.06562
C         17.04884       63.81988       18.16861
H         15.28123       65.62756       18.16910
H         16.93132       64.50705       20.20349
H         17.16380       64.21520       17.13577
H         17.88347       63.11568       18.37457
H         16.09419       63.25501       18.22671
N         18.68898       66.47341       18.07296
C         19.96721       67.16559       17.92524
C         20.21529       68.09124       19.10612
O         21.21247       67.91423       19.79196
C         20.00869       67.93922       16.58707
C         19.89925       66.97831       15.38433
C         19.86026       67.71407       14.08225
O         18.85294       68.56412       13.82927
O         20.70160       67.50700       13.22431
H         17.96881       66.58361       17.34400
H         20.78553       66.41060       17.89910
H         20.97014       68.49425       16.50872
H         19.17924       68.67841       16.56503
H         18.96663       66.38247       15.43050
H         20.75878       66.27428       15.40095
N         19.33068       69.07651       19.42004
C         19.47436       69.96039       20.55964
H         19.49614       71.01341       20.21003
H         18.60349       69.82716       21.23681
H         20.39910       69.75985       21.14003
H         18.49879       69.19752       18.83574
Ca        19.87075       69.93292       11.70759
O         17.00021       69.77881       11.48540
H         16.67077       69.32130       10.67194
H         16.19081       70.17106       11.89911
O         18.70635       67.28709       10.32820
H         19.32154       67.81924        9.76608
H         17.96173       67.05486        9.71909

Ca 1.0



