%chk=holoCaM-CaMKII.loop4.water2.frame46.chk
%nprocshared=20
%mem=10GB
%nosave
#b3lyp/svp scf=(tight,noincore,xqc) Test 
#IOP(5/87=12) Density=Current Pop=(MK,readradii) iop(6/33=2) iop(6/42=6)

holoCaM-CaMKII.loop4.water2.frame46 

   -3  1 
C         14.75400       47.80546       -5.97984
C         16.06735       47.08390       -6.05677
O         17.10813       47.72032       -6.11427
H         14.22099       47.50923       -5.05122
H         14.90022       48.90557       -5.97625
H         14.12905       47.52809       -6.85560
N         16.07917       45.72617       -6.04854
C         17.28963       44.91502       -6.12449
C         17.95733       45.09369       -7.48125
O         17.27067       44.97786       -8.48755
C         16.89849       43.43944       -5.91172
C         18.05595       42.49915       -5.77478
O         17.80253       41.19382       -5.59716
O         19.20932       42.89397       -5.78733
H         15.16782       45.24651       -5.96769
H         17.97459       45.20114       -5.29393
H         16.25425       43.10053       -6.75159
H         16.31857       43.35626       -4.96679
N         19.29687       45.34186       -7.58631
C         19.96847       45.56837       -8.86521
C         20.82236       44.34949       -9.22315
O         20.53217       43.73910      -10.24362
C         20.72597       46.93596       -8.84191
C         19.72457       48.07550       -8.49232
C         21.43329       47.20565      -10.18105
C         20.34350       49.46792       -8.35577
H         19.86474       45.36359       -6.72747
H         19.21049       45.65390       -9.67683
H         21.50779       46.90801       -8.06400
H         19.25870       47.85187       -7.51168
H         18.91883       48.11791       -9.25742
H         20.69734       47.27404      -11.00918
H         22.01587       48.14914      -10.13675
H         22.16092       46.39840      -10.40498
H         19.55256       50.18706       -8.05017
H         21.13482       49.46873       -7.57864
H         20.76247       49.82416       -9.31767
N         21.86716       43.91140       -8.45396
C         22.66044       42.72778       -8.81907
C         21.88849       41.40366       -8.70200
O         22.44406       40.37845       -9.07157
C         24.00503       42.68209       -8.04932
C         23.92207       42.43519       -6.56808
O         22.75666       42.13808       -5.97149
O         24.93979       42.48567       -5.89669
H         22.13386       44.45628       -7.62508
H         22.95728       42.85435       -9.88491
H         24.51325       43.65821       -8.21143
H         24.65394       41.89144       -8.48581
N         20.60295       41.34512       -8.24005
C         19.79461       40.13200       -8.23985
C         20.15872       39.07344       -7.20890
O         19.50087       38.04274       -7.21567
H         20.12631       42.21088       -7.96509
H         19.82059       39.68859       -9.25871
H         18.73983       40.41502       -8.03348
N         21.15478       39.23082       -6.28877
C         21.50716       38.19159       -5.31512
C         20.39498       37.86359       -4.31279
O         20.53080       36.86861       -3.61294
C         22.81986       38.54255       -4.57453
C         22.77086       39.79160       -3.72925
O         23.87111       40.16972       -3.05213
O         21.76072       40.47178       -3.65401
H         21.70856       40.08870       -6.31177
H         21.70800       37.26516       -5.89840
H         23.62573       38.67210       -5.32876
H         23.10236       37.69057       -3.91895
N         19.27367       38.63057       -4.19106
C         18.13432       38.28544       -3.35311
C         17.78754       39.32816       -2.30497
O         16.73659       39.18319       -1.70119
H         19.19481       39.48265       -4.75393
H         18.26866       37.30822       -2.83967
H         17.25783       38.18403       -4.02906
N         18.61628       40.37192       -1.99646
C         18.28970       41.37331       -0.97595
C         18.43035       42.78939       -1.52242
O         18.83939       42.97218       -2.65689
C         19.21885       41.19576        0.24569
C         18.96490       39.87002        0.97723
C         19.78953       39.78089        2.23646
N         21.14151       39.76624        2.18382
O         19.22712       39.72041        3.32000
H         19.53127       40.43939       -2.45778
H         17.23923       41.26119       -0.63053
H         19.02396       42.00438        0.98116
H         20.28028       41.27229       -0.07359
H         19.19611       39.00528        0.32022
H         17.88766       39.82286        1.25381
H         21.63587       39.80725        1.28125
H         21.69633       39.70844        3.05084
N         18.11690       43.85026       -0.71441
C         18.30382       45.24911       -1.08281
C         19.32694       45.85415       -0.13523
O         19.10548       45.87698        1.06626
C         16.95730       46.02013       -1.01001
C         17.15289       47.52951       -1.24765
C         15.96375       45.47396       -2.04489
H         17.75335       43.66131        0.22984
H         18.68776       45.33348       -2.12332
H         16.51861       45.89177        0.00493
H         17.80515       47.96911       -0.46538
H         17.60868       47.71997       -2.24243
H         16.17875       48.05878       -1.18731
H         16.36370       45.60509       -3.07357
H         15.76588       44.39599       -1.87163
H         14.99761       46.01758       -1.96947
N         20.48491       46.36605       -0.63579
C         21.52921       46.97243        0.18532
C         21.16578       48.43882        0.45306
O         20.22925       48.93314       -0.15750
C         22.86620       46.79630       -0.59750
C         24.16593       47.04523        0.13596
N         25.07515       46.04986        0.27332
O         24.43593       48.15238        0.56381
H         20.63730       46.30540       -1.65003
H         21.60396       46.39841        1.13523
H         22.83994       47.42316       -1.51319
H         22.89498       45.73697       -0.93585
H         24.89833       45.10697       -0.10274
H         25.97443       46.22712        0.74501
N         21.86265       49.20553        1.33984
C         21.64724       50.64925        1.50065
C         21.93139       51.37019        0.19220
O         21.17088       52.24384       -0.19698
C         22.59122       51.21695        2.58050
C         22.45181       52.72103        2.69454
C         21.24264       53.30537        3.11093
C         23.53087       53.55258        2.34975
C         21.11803       54.69718        3.17907
C         23.40261       54.94204        2.41486
C         22.19476       55.51965        2.83001
O         22.05745       56.85942        2.89368
H         22.59498       48.75322        1.90309
H         20.59845       50.84621        1.81634
H         23.63629       50.95708        2.30067
H         22.37727       50.74565        3.56340
H         20.39556       52.68609        3.37760
H         24.46857       53.12668        2.01520
H         20.18163       55.13726        3.49858
H         24.24144       55.56766        2.13709
H         22.77734       57.46161        2.65649
N         23.02080       51.02162       -0.53932
C         23.36183       51.56510       -1.84623
C         22.17651       51.44806       -2.79224
O         21.86233       52.40774       -3.48189
C         24.59048       50.78223       -2.38090
C         25.15258       51.31701       -3.70288
C         26.38482       50.54620       -4.09485
O         27.46116       50.53244       -3.28355
O         26.41993       49.93427       -5.15030
H         23.61650       50.27488       -0.16256
H         23.64683       52.63531       -1.74458
H         24.32846       49.70588       -2.50072
H         25.39698       50.85540       -1.61689
H         25.43052       52.38585       -3.58530
H         24.38546       51.23034       -4.50222
N         21.46631       50.28943       -2.85706
C         20.40613       50.04518       -3.83138
C         19.04207       50.54763       -3.37359
O         18.10938       50.50030       -4.16417
C         20.35543       48.53776       -4.14344
C         21.74772       48.05290       -4.58276
C         21.78797       46.59427       -4.83741
O         22.17050       46.19263       -5.91851
O         21.49197       45.70170       -3.87837
H         21.75661       49.51738       -2.23991
H         20.67031       50.56876       -4.77808
H         19.61230       48.33679       -4.94654
H         20.04007       47.98780       -3.23014
H         22.50972       48.23427       -3.80275
H         22.05774       48.60508       -5.49588
N         18.83856       51.03316       -2.11841
C         17.56102       51.53950       -1.66789
H         16.78584       50.74854       -1.74109
H         17.63892       51.86245       -0.60649
H         17.26478       52.41696       -2.28049
H         19.60707       51.03827       -1.44575
Ca        21.72656       43.66264       -4.72775
O         22.34978       42.89982       -1.40479
H         23.25272       43.13467       -1.07365
H         22.32982       41.91065       -1.37950
O         24.52827       44.34416       -3.41831
H         25.43406       44.71241       -3.26532
H         24.30183       44.62530       -4.34002

Ca 1.0



