%chk=holoCaM.loop1.water2.frame404.chk
%nprocshared=20
%mem=10GB
%nosave
#b3lyp/svp scf=(tight,noincore,xqc) Test 
#IOP(5/87=12) Density=Current Pop=(MK,readradii) iop(6/33=2) iop(6/42=6)

holoCaM.loop1.water2.frame404 

   0  1 
C        112.62949       95.88820        5.42484
C        113.62325       96.95243        5.06473
O        114.71389       96.63657        4.61090
H        111.70875       96.02757        4.81814
H        113.03834       94.87608        5.22440
H        112.36652       95.96873        6.50043
N        113.28505       98.25994        5.22184
C        114.15378       99.37328        4.83582
C        115.40934       99.40211        5.72949
O        115.43078       98.66824        6.70917
C        113.27451      100.65434        4.87526
C        113.78912      101.84867        4.13871
O        113.19637      102.26013        3.15316
O        114.84593      102.52482        4.59215
H        112.33817       98.45988        5.58412
H        114.45440       99.19467        3.78013
H        113.02203      100.92641        5.92300
H        112.32026      100.39671        4.36162
N        116.50630      100.17549        5.44431
C        117.72952      100.16632        6.26764
C        117.96576      101.48390        6.99623
O        118.62896      101.47006        8.02395
C        118.96414       99.68529        5.46160
C        119.40138      100.59050        4.28646
C        120.50156       99.88961        3.45324
C        120.88360      100.62329        2.15281
N        121.63301      101.85541        2.38672
H        116.48363      100.76030        4.60188
H        117.60202       99.42054        7.08236
H        118.70636       98.68096        5.05879
H        119.83053       99.56146        6.14850
H        119.75286      101.57202        4.66928
H        118.53378      100.76810        3.62531
H        120.10239       98.90081        3.14157
H        121.41075       99.70858        4.06541
H        119.97375      100.84317        1.56669
H        121.51282       99.94540        1.53363
H        121.10394      102.50657        3.00439
H        122.55608      101.62935        2.82115
H        121.80205      102.32341        1.46565
N        117.43954      102.65202        6.53998
C        117.50688      103.92921        7.24559
C        116.10946      104.53600        7.45034
O        116.02803      105.66871        7.90499
C        118.46860      104.89926        6.51491
C        118.13862      105.23743        5.08899
O        117.10205      104.67022        4.45852
O        118.84433      106.02579        4.48140
H        116.96718      102.63902        5.63517
H        117.94946      103.79914        8.25755
H        119.48655      104.45284        6.52080
H        118.51297      105.84781        7.09257
N        114.96422      103.83511        7.18165
C        113.61795      104.36649        7.36888
C        113.21230      105.47476        6.40370
O        112.11039      105.98223        6.55747
H        115.03147      102.84846        6.90510
H        113.52225      104.73127        8.41399
H        112.88504      103.54103        7.23109
N        114.02264      105.91127        5.39705
C        113.68053      107.03110        4.51485
C        112.43259      106.83394        3.65410
O        111.96265      107.83195        3.12419
C        114.88372      107.42407        3.61602
C        115.43203      106.30002        2.76427
O        116.40698      106.50101        2.06036
O        114.92693      105.05399        2.86814
H        114.94402      105.47559        5.29601
H        113.46702      107.90141        5.17529
H        115.71150      107.76071        4.27763
H        114.60143      108.28072        2.96628
N        111.86280      105.61538        3.41936
C        110.66412      105.45511        2.59760
C        110.95716      104.93809        1.19943
O        110.01253      104.75853        0.44357
H        112.30708      104.76542        3.79376
H        110.14264      106.42798        2.46117
H        109.95471      104.78539        3.12813
N        112.23210      104.73917        0.76125
C        112.59436      104.36653       -0.60138
C        113.39284      103.07818       -0.57069
O        114.36895      103.01299        0.15129
C        113.42876      105.52104       -1.21398
C        113.89216      105.22922       -2.64819
O        112.69581      106.72152       -1.18584
H        113.01012      104.91367        1.40640
H        111.69231      104.22715       -1.23800
H        114.33894      105.67309       -0.59252
H        111.88390      106.59398       -1.74402
H        113.01836      105.07163       -3.31548
H        114.48460      106.08758       -3.02995
H        114.53675      104.32574       -2.67807
N        113.07521      102.02754       -1.37152
C        113.81279      100.76656       -1.37110
C        114.78256      100.73592       -2.54328
O        114.37730      100.91207       -3.68352
C        112.80726       99.57315       -1.37867
C        112.01078       99.47044       -0.04678
C        113.46652       98.22265       -1.71523
C        112.84166       99.07374        1.18571
H        112.30880      102.14263       -2.05250
H        114.43707      100.67442       -0.45923
H        112.07715       99.76001       -2.19697
H        111.21908       98.69986       -0.16957
H        111.50752      100.43853        0.16009
H        113.92416       98.25207       -2.72507
H        114.25012       97.95729       -0.98613
H        112.70329       97.41670       -1.72884
H        113.63418       99.81415        1.40751
H        112.18036       99.01282        2.07480
H        113.30176       98.07265        1.05522
N        116.09338      100.43323       -2.30409
C        117.11256      100.23100       -3.32814
C        117.26201       98.73797       -3.58211
O        116.52147       97.96609       -2.99901
C        118.45124      100.87963       -2.88083
C        118.28914      102.39445       -2.69872
O        118.88975      100.28068       -1.68613
H        116.36606      100.20978       -1.33885
H        116.79473      100.68435       -4.29234
H        119.21991      100.71302       -3.66578
H        119.72802      100.73538       -1.40875
H        119.25837      102.85162       -2.40440
H        117.96173      102.86065       -3.65186
H        117.54112      102.61159       -1.91040
N        118.16076       98.25433       -4.48001
C        118.26029       96.83588       -4.83484
C        118.60216       95.96548       -3.62404
O        117.87928       95.02035       -3.34608
C        119.29682       96.65472       -5.97164
C        119.34683       95.20722       -6.47267
O        118.93814       97.48683       -7.04663
H        118.76916       98.93056       -4.96607
H        117.27541       96.50899       -5.23991
H        120.30094       96.95188       -5.58631
H        119.75609       97.62807       -7.59126
H        120.08615       95.12270       -7.29695
H        119.65022       94.51426       -5.66132
H        118.35035       94.90283       -6.85967
N        119.69517       96.24119       -2.86310
C        120.11783       95.46914       -1.68612
C        119.01196       95.40068       -0.64215
O        118.70178       94.31019       -0.18196
C        121.39670       96.11160       -1.09764
C        122.58856       95.91473       -2.06236
C        123.77204       96.85376       -1.80170
C        124.42972       96.70783       -0.42638
N        125.55315       97.64046       -0.30984
H        120.24412       97.07226       -3.13028
H        120.36944       94.42384       -1.97770
H        121.66333       95.65256       -0.11966
H        121.19359       97.19221       -0.92886
H        122.27602       96.13672       -3.10318
H        122.90919       94.84926       -2.03749
H        123.42174       97.90130       -1.92824
H        124.53856       96.64993       -2.58173
H        124.79830       95.66671       -0.29479
H        123.68998       96.92885        0.37330
H        125.99418       97.54114        0.63213
H        126.27067       97.43425       -1.04324
H        125.21626       98.62491       -0.42317
N        118.33566       96.52090       -0.26878
C        117.21615       96.53093        0.68066
C        116.14362       95.53373        0.25375
O        115.71515       94.73669        1.07634
C        116.61692       97.95772        0.78779
C        117.62436       98.96647        1.36501
C        117.14990      100.39835        1.31625
O        117.76157      101.21592        0.65112
O        116.11560      100.82736        2.05243
H        118.60154       97.39869       -0.73768
H        117.57171       96.23715        1.69415
H        115.71978       97.94712        1.44454
H        116.31635       98.27650       -0.22562
H        118.56834       98.92137        0.78881
H        117.85741       98.68860        2.41410
N        115.71613       95.48426       -1.03728
C        114.74443       94.53835       -1.54529
H        113.91315       95.09132       -2.02985
H        115.22913       93.89328       -2.30988
H        114.32657       93.88927       -0.74917
H        116.13391       96.12221       -1.71506
Ca       115.89053      103.09206        2.23020
O        117.03303      104.65084       -0.29197
H        117.66517      105.11054        0.31378
H        117.32547      104.92309       -1.19707
O        118.82191      103.49902        2.13556
H        119.34405      104.01777        2.79533
H        119.34004      103.57593        1.29572

Ca 1.0



