%chk=holoCaM-CaMKII.loop3.water2.frame300.chk
%nprocshared=20
%mem=10GB
%nosave
#b3lyp/svp scf=(tight,noincore,xqc) Test 
#IOP(5/87=12) Density=Current Pop=(MK,readradii) iop(6/33=2) iop(6/42=6)

holoCaM-CaMKII.loop3.water2.frame300 

   0  1 
C         54.92304       22.88841       81.19555
C         54.37493       23.26605       82.53435
O         55.10451       23.20986       83.51503
H         55.98961       22.58942       81.28156
H         54.33905       22.04329       80.77845
H         54.85273       23.76164       80.51282
N         53.08932       23.70181       82.64633
C         52.54691       24.16047       83.91391
C         52.43590       22.98038       84.88649
O         51.68161       22.05423       84.62349
C         51.19352       24.86962       83.68857
C         50.78845       25.68787       84.87354
O         51.61610       25.79806       85.92183
O         49.72896       26.28173       84.87049
H         52.51457       23.77023       81.79171
H         53.25907       24.93045       84.29133
H         50.41109       24.11964       83.43847
H         51.28057       25.58289       82.84035
N         53.24476       22.91571       85.98095
C         53.38058       21.73143       86.83396
C         52.14429       21.41822       87.68682
O         51.94052       20.25384       87.99926
C         54.63988       21.88396       87.72076
C         55.13312       20.56571       88.33246
C         56.39761       20.80089       89.17225
C         56.96731       19.47754       89.69962
N         58.13156       19.71138       90.55393
H         53.89903       23.69454       86.11938
H         53.57409       20.87651       86.14778
H         54.44711       22.63529       88.51544
H         55.47224       22.25559       87.08055
H         55.37026       19.86153       87.50400
H         54.34966       20.11467       88.97598
H         56.14285       21.46594       90.02624
H         57.17715       21.30038       88.55419
H         57.26512       18.83749       88.83846
H         56.18915       18.94013       90.28467
H         57.85280       20.27621       91.38909
H         58.50713       18.79161       90.88003
H         58.87912       20.21365       90.02205
N         51.30570       22.40198       88.13167
C         50.10506       22.15964       88.95397
C         48.81872       22.57018       88.23275
O         47.75146       22.33554       88.78392
C         50.18003       22.83278       90.36471
C         50.32175       24.33221       90.35802
O         50.28256       24.97579       91.39379
O         50.61710       24.92716       89.20325
H         51.52952       23.35832       87.84211
H         50.00390       21.06968       89.14766
H         51.03237       22.41085       90.93868
H         49.24761       22.57936       90.91500
N         48.82427       23.13725       86.99097
C         47.61226       23.41315       86.23912
C         46.72750       24.47524       86.85233
O         45.57383       24.17655       87.12849
H         49.71385       23.31996       86.50877
H         47.04158       22.46443       86.11985
H         47.88961       23.76233       85.22141
N         47.17362       25.75615       87.02202
C         46.29864       26.85597       87.44266
C         46.16460       27.92505       86.35252
O         45.41566       28.86999       86.55547
C         46.78086       27.45436       88.78637
C         47.96770       28.38013       88.66649
N         47.94130       29.62387       89.19938
O         48.96559       28.00783       88.08667
H         48.15889       25.95849       86.80475
H         45.27952       26.45549       87.63020
H         47.02721       26.61375       89.47118
H         45.94920       28.02663       89.24940
H         47.11661       29.96689       89.71118
H         48.76243       30.24263       89.11718
N         46.87332       27.85178       85.18356
C         46.80961       28.83189       84.11334
C         48.10844       29.60414       83.94719
O         48.17604       30.39819       83.01934
H         47.50458       27.06478       85.01603
H         46.00636       29.57808       84.29198
H         46.56749       28.29571       83.17009
N         49.13986       29.50497       84.84255
C         50.30433       30.38830       84.82090
C         51.61322       29.62677       84.96009
O         51.84667       29.00251       85.98580
C         50.16740       31.37965       85.99143
C         49.02691       32.33653       85.74903
C         47.82050       32.22408       86.45808
C         49.17104       33.35893       84.79635
C         46.77414       33.11966       86.21431
C         48.13109       34.26184       84.56512
C         46.92695       34.14415       85.27317
O         45.91442       35.00811       85.05887
H         49.04664       28.87523       85.65071
H         50.34244       30.97301       83.87563
H         51.09376       31.97783       86.13637
H         50.00278       30.79302       86.92253
H         47.68214       31.43731       87.18584
H         50.09647       33.46451       84.24325
H         45.84414       33.01843       86.75922
H         48.26367       35.05186       83.83663
H         45.98571       35.73592       84.42458
N         52.54144       29.68487       83.96403
C         53.89260       29.13775       84.07336
C         54.72262       30.06288       84.95664
O         54.80179       31.24739       84.65727
C         54.54294       29.02098       82.65830
C         53.72261       28.03692       81.77827
C         56.01341       28.55304       82.76078
C         54.14303       28.03871       80.30753
H         52.28984       30.18358       83.09640
H         53.85700       28.10559       84.49129
H         54.52900       30.02906       82.18605
H         52.65018       28.32143       81.78861
H         53.79990       27.00576       82.18994
H         56.07443       27.54963       83.23472
H         56.49681       28.51134       81.76538
H         56.61791       29.26345       83.36154
H         55.19036       27.70582       80.17239
H         53.49152       27.34180       79.73939
H         54.02179       29.05809       79.88212
N         55.41769       29.57528       86.02277
C         56.30162       30.38154       86.86174
C         57.74331       29.91302       86.70193
O         57.99038       29.00872       85.91908
C         55.83036       30.31455       88.32469
O         55.91971       29.00822       88.82811
H         55.36288       28.56884       86.22240
H         56.27011       31.44963       86.55370
H         54.78772       30.70396       88.40359
H         56.44709       30.97747       88.96604
H         55.01886       28.60266       88.74100
N         58.75877       30.50645       87.38886
C         60.16696       30.14254       87.22574
C         60.44040       28.69284       87.58395
O         60.99611       27.97733       86.76309
C         61.05248       31.04405       88.09105
H         58.52340       31.27614       88.03483
H         60.46279       30.31251       86.16568
H         60.80430       30.92976       89.16788
H         62.12234       30.78307       87.93991
H         60.90757       32.10579       87.80078
N         60.07438       28.19514       88.79844
C         60.33492       26.82041       89.22354
C         59.81446       25.81772       88.21729
O         60.51220       24.86388       87.90066
C         59.67169       26.56011       90.58394
H         59.56549       28.82105       89.44183
H         61.42906       26.66514       89.34717
H         59.88319       25.52319       90.92440
H         60.07141       27.26353       91.34473
H         58.56941       26.69368       90.51952
N         58.58507       25.98661       87.67089
C         57.97821       25.04356       86.74112
C         58.81289       24.94063       85.47474
O         59.26814       23.85245       85.15088
C         56.51198       25.44228       86.45730
C         55.72373       25.51871       87.78731
C         54.27747       25.81962       87.61263
O         53.36658       25.00032       88.16193
O         53.91557       26.83194       87.03999
H         58.06826       26.83434       87.94131
H         57.93993       24.04094       87.22548
H         56.05819       24.67415       85.79439
H         56.46630       26.42263       85.93530
H         56.11345       26.31843       88.44046
H         55.82763       24.55986       88.33525
N         59.09828       26.04683       84.73626
C         59.95700       26.01052       83.57226
H         60.96374       25.63487       83.85685
H         59.52004       25.35538       82.79079
H         60.07414       27.03560       83.15815
H         58.72136       26.95427       85.02606
Ca        51.12335       26.64752       87.91912
O         51.68450       29.56531       89.06299
H         51.99006       30.40676       88.64044
H         51.65978       29.76734       90.03191
O         52.99045       27.12911       90.39160
H         52.27210       26.72204       90.93679
H         53.77562       27.15359       90.99339

Ca 1.0



