%chk=holoCaM-CaMKII.loop4.water1.frame222.chk
%nprocshared=20
%mem=10GB
%nosave
#b3lyp/svp scf=(tight,noincore,xqc) Test 
#IOP(5/87=12) Density=Current Pop=(MK,readradii) iop(6/33=2) iop(6/42=6)

holoCaM-CaMKII.loop4.water1.frame222 

   -3  1 
C         26.99980       60.74000       47.32478
C         28.11867       61.19346       46.43168
O         29.25525       61.23114       46.87560
H         26.02571       60.74431       46.78971
H         27.19933       59.70654       47.67661
H         26.92094       61.41913       48.19864
N         27.86470       61.54478       45.14363
C         28.89200       61.97798       44.20347
C         29.51608       63.29821       44.65360
O         28.76527       64.24126       44.86385
C         28.23945       62.16244       42.81753
C         29.23132       62.40469       41.72728
O         30.54900       62.28221       41.95343
O         28.83379       62.67523       40.60986
H         26.89004       61.47586       44.80968
H         29.65500       61.17625       44.12050
H         27.52523       63.01350       42.86339
H         27.67318       61.24771       42.53536
N         30.87194       63.45160       44.79470
C         31.48430       64.71463       45.23408
C         32.33593       65.38691       44.15299
O         32.78928       66.49592       44.40184
C         32.30051       64.52209       46.55134
C         33.60904       63.72035       46.31649
C         31.41132       63.88504       47.63482
C         34.46254       63.54269       47.57544
H         31.48317       62.64995       44.58476
H         30.67997       65.44657       45.46422
H         32.59352       65.53229       46.91587
H         34.23671       64.26017       45.57615
H         33.38011       62.72867       45.89242
H         31.14536       62.84550       47.35787
H         31.92346       63.86469       48.61761
H         30.48049       64.47649       47.76579
H         35.40373       63.01527       47.31264
H         34.71941       64.53138       48.01156
H         33.93991       62.92677       48.33542
N         32.60257       64.79947       42.94752
C         33.40632       65.42773       41.89784
C         32.56428       65.68601       40.64302
O         32.56162       66.81960       40.18350
C         34.72457       64.65185       41.67104
C         34.59864       63.21070       41.28280
O         34.10862       62.89797       40.21486
O         35.10793       62.25575       42.08422
H         32.23985       63.85854       42.76161
H         33.76169       66.42937       42.23064
H         35.29279       64.68663       42.62753
H         35.33462       65.17479       40.90319
N         31.74589       64.73343       40.10105
C         30.79478       65.00395       39.01958
C         30.75412       63.94579       37.92066
O         29.91005       64.05879       37.04343
H         31.70275       63.81533       40.55301
H         30.96314       66.00392       38.56571
H         29.78173       65.01278       39.47485
N         31.60505       62.88361       37.90885
C         31.59355       61.79639       36.92038
C         30.34310       60.90375       36.92921
O         30.28055       60.00690       36.09868
C         32.85012       60.90832       37.11402
C         33.01858       60.33921       38.50606
O         34.01978       59.69396       38.76799
O         32.14291       60.62971       39.49072
H         32.33706       62.87113       38.62162
H         31.66589       62.24895       35.90673
H         33.74222       61.54182       36.91600
H         32.85372       60.08451       36.36815
N         29.31097       61.07224       37.80159
C         28.11024       60.24353       37.79636
C         28.30364       58.82153       38.30937
O         27.31385       58.10510       38.36201
H         29.33988       61.84948       38.46445
H         27.67324       60.23124       36.77369
H         27.36171       60.71392       38.47129
N         29.50994       58.34761       38.73883
C         29.70614       57.02760       39.33480
C         30.23882       57.18092       40.74040
O         31.28042       57.79322       40.93641
C         30.68946       56.17710       38.51033
C         29.97954       55.48089       37.34225
C         30.93585       54.61896       36.56407
N         31.92818       55.17923       35.83697
O         30.80739       53.40334       36.58032
H         30.33645       58.95523       38.68414
H         28.74915       56.46484       39.40558
H         31.07969       55.35392       39.15215
H         31.55563       56.79706       38.18850
H         29.49616       56.21137       36.66165
H         29.18669       54.82798       37.77583
H         32.03361       56.20320       35.79641
H         32.57842       54.58889       35.29787
N         29.56112       56.61453       41.77636
C         30.01733       56.67526       43.15437
C         31.07650       55.60255       43.35209
O         30.78449       54.44873       43.06476
C         28.82306       56.48833       44.13771
C         29.26880       56.75489       45.58552
C         27.65873       57.44425       43.80531
H         28.69690       56.08927       41.57327
H         30.41689       57.68663       43.34887
H         28.43801       55.44726       44.06071
H         28.42041       56.60181       46.28577
H         30.09107       56.07422       45.88557
H         29.61552       57.80608       45.69052
H         27.24338       57.24441       42.79630
H         26.82563       57.29849       44.52513
H         27.98960       58.50411       43.84495
N         32.31266       55.89337       43.85677
C         33.34558       54.87128       44.04491
C         33.45544       54.47688       45.50814
O         32.71015       55.00077       46.32320
C         34.70484       55.27850       43.40855
C         35.55622       56.25665       44.19290
N         35.19877       57.54588       44.36732
O         36.62226       55.87200       44.65140
H         32.49237       56.85426       44.17035
H         33.04067       53.94590       43.50945
H         34.55079       55.64610       42.37137
H         35.30694       54.34802       43.32043
H         34.33647       57.92128       43.95984
H         35.81598       58.18467       44.89130
N         34.35138       53.53038       45.90919
C         34.47778       53.05990       47.28725
C         34.73625       54.20368       48.24761
O         34.10385       54.25636       49.29157
C         35.63653       52.04669       47.40699
C         35.73841       51.51640       48.81902
C         34.70772       50.72535       49.35439
C         36.84870       51.83144       49.61995
C         34.78527       50.25941       50.66927
C         36.92069       51.37013       50.93770
C         35.88787       50.58204       51.46669
O         35.94220       50.13337       52.73676
H         34.97434       53.11826       45.19808
H         33.53214       52.55100       47.57891
H         36.58089       52.55885       47.11563
H         35.48813       51.19424       46.70966
H         33.84326       50.47063       48.75406
H         37.64993       52.44826       49.23201
H         33.98393       49.65132       51.06975
H         37.77656       51.63021       51.54754
H         36.68325       50.33985       53.32393
N         35.67648       55.14083       47.95975
C         35.98660       56.26446       48.83335
C         34.73832       57.10683       49.08947
O         34.39858       57.31829       50.24550
C         37.14778       57.07227       48.20990
C         37.71919       58.14009       49.14997
C         38.95476       58.75728       48.55417
O         40.13927       58.63516       49.18499
O         38.89628       59.35991       47.49419
H         36.19119       55.04605       47.07202
H         36.35693       55.86001       49.80243
H         36.83363       57.52885       47.24541
H         37.97223       56.35317       47.99889
H         37.99874       57.66113       50.11393
H         36.96409       58.92904       49.34923
N         33.98147       57.58042       48.05701
C         32.76079       58.37644       48.24953
C         31.63836       57.61378       48.94798
O         30.67653       58.24804       49.36068
C         32.18988       58.82650       46.89318
C         33.12803       59.75074       46.11309
C         32.62757       59.99119       44.71335
O         33.39195       60.64954       43.82935
O         31.56740       59.52444       44.33613
H         34.29616       57.36158       47.10005
H         33.01906       59.26885       48.86175
H         31.22578       59.36392       47.03278
H         31.99589       57.90649       46.29776
H         34.12375       59.28744       46.02435
H         33.24973       60.69910       46.66717
N         31.64155       56.25891       49.04758
C         30.55310       55.51726       49.64400
H         29.60957       55.72180       49.09376
H         30.76391       54.42750       49.58505
H         30.43619       55.80273       50.70987
H         32.41724       55.72757       48.65231
Ca        32.78654       60.50260       41.65256
O         35.04258       58.61068       41.48127
H         35.01421       57.98770       40.71296
H         35.99200       58.62252       41.76081

Ca 1.0



