%chk=holoCaM-CaMKII.loop3.water2.frame47.chk
%nprocshared=20
%mem=10GB
%nosave
#b3lyp/svp scf=(tight,noincore,xqc) Test 
#IOP(5/87=12) Density=Current Pop=(MK,readradii) iop(6/33=2) iop(6/42=6)

holoCaM-CaMKII.loop3.water2.frame47 

   0  1 
C         14.30238       46.94883        6.53465
C         14.39657       45.48059        6.81271
O         13.37004       44.85628        7.04151
H         15.30272       47.38569        6.33107
H         13.65755       47.11279        5.64626
H         13.86076       47.46341        7.41266
N         15.60449       44.85254        6.79669
C         15.74400       43.42373        7.02453
C         15.28514       43.06764        8.43335
O         15.88660       43.50641        9.40385
C         17.20049       43.00366        6.78184
C         17.41788       41.53145        6.87800
O         18.53652       41.09495        6.70998
O         16.40893       40.68450        7.13868
H         16.44715       45.40812        6.58129
H         15.11574       42.90060        6.26663
H         17.86423       43.51323        7.51322
H         17.49839       43.31377        5.75593
N         14.17238       42.30530        8.59609
C         13.57764       41.98032        9.88637
C         14.43461       40.99798       10.67346
O         14.60284       41.18505       11.87001
C         12.16045       41.40994        9.64408
C         11.28172       41.37378       10.90623
C          9.84300       40.96431       10.53735
C          8.84109       41.10874       11.69574
N          9.13746       40.21590       12.81485
H         13.67560       42.00391        7.74489
H         13.43281       42.92539       10.45771
H         12.21966       40.40589        9.17034
H         11.65013       42.10192        8.93590
H         11.25061       42.39807       11.33955
H         11.71201       40.67832       11.65678
H          9.83290       39.92286       10.14894
H          9.48146       41.63677        9.72760
H          7.82645       40.86885       11.30562
H          8.82521       42.16387       12.04987
H         10.05357       40.46317       13.25096
H          8.38935       40.32520       13.53764
H          9.14807       39.22273       12.48827
N         14.98566       39.91093       10.05560
C         15.67902       38.82545       10.75091
C         17.18080       38.74846       10.44841
O         17.81595       37.81927       10.92890
C         14.94262       37.50454       10.43816
C         14.92568       37.16737        8.97350
O         13.75493       37.12493        8.30930
O         15.96441       36.92758        8.38173
H         14.86971       39.82417        9.03582
H         15.61028       38.96506       11.85265
H         13.89127       37.61211       10.78535
H         15.39724       36.66041       10.99971
N         17.84001       39.73024        9.76602
C         19.29550       39.78270        9.65623
C         19.95607       38.79736        8.70244
O         21.17918       38.79041        8.67822
H         17.31426       40.55426        9.45006
H         19.72517       39.64566       10.67350
H         19.59231       40.79749        9.31513
N         19.26409       37.95339        7.88168
C         19.94287       36.98259        7.00762
C         20.80778       37.62321        5.90519
O         21.53808       36.90007        5.24304
C         18.91800       36.00607        6.37016
C         18.13363       36.63217        5.20507
N         17.10569       35.75273        4.66718
O         17.64782       37.90479        5.52469
H         18.23692       37.96688        7.92270
H         20.60056       36.37908        7.67167
H         18.22901       35.63116        7.15723
H         19.46483       35.13187        5.95439
H         17.55724       34.84170        4.41756
H         16.78450       36.16491        3.76303
N         20.71948       38.95317        5.61237
C         21.44807       39.63579        4.55210
C         20.52819       40.14386        3.44626
O         21.01754       40.84464        2.57100
H         20.07285       39.52770        6.14817
H         22.20873       38.97600        4.08258
H         21.98333       40.49599        5.00979
N         19.21534       39.76686        3.36836
C         18.31561       40.10550        2.26925
C         16.98937       40.68587        2.75905
O         16.73117       40.70672        3.95504
C         18.00765       38.83391        1.44253
C         19.23126       38.26444        0.76540
C         20.22279       37.57882        1.49143
C         19.38272       38.41489       -0.62251
C         21.34897       37.06745        0.83776
C         20.51038       37.91073       -1.27120
C         21.49934       37.23614       -0.54316
O         22.59381       36.74754       -1.15995
H         18.85388       39.12883        4.07236
H         18.79107       40.85819        1.60246
H         17.27314       39.10818        0.65686
H         17.52696       38.04861        2.06695
H         20.12515       37.42987        2.55921
H         18.63284       38.93706       -1.20358
H         22.10615       36.54053        1.40508
H         20.61320       38.04823       -2.33984
H         22.73512       36.85250       -2.11195
N         16.09450       41.17870        1.84859
C         14.76815       41.70652        2.17000
C         13.73270       41.00572        1.28621
O         13.90141       41.01033        0.07311
C         14.70691       43.24159        1.89801
C         15.84222       43.99767        2.63547
C         13.32488       43.79357        2.32268
C         15.91942       45.48020        2.25573
H         16.38099       41.20661        0.85727
H         14.53526       41.55272        3.24883
H         14.84625       43.40580        0.80598
H         16.82030       43.55643        2.35025
H         15.72387       43.89740        3.73652
H         13.21466       44.86735        2.07881
H         12.50444       43.27499        1.78948
H         13.17304       43.65920        3.41637
H         15.01283       46.03625        2.56582
H         16.78776       45.94923        2.76299
H         16.05516       45.58500        1.15730
N         12.60156       40.45603        1.81271
C         11.53625       39.85118        1.00657
C         10.27604       40.71287        1.04580
O         10.31478       41.78584        1.62150
C         11.27437       38.42315        1.50499
O         10.78328       38.44961        2.81619
H         12.46352       40.50889        2.83051
H         11.83950       39.78033       -0.06101
H         12.23313       37.85804        1.45777
H         10.53618       37.91355        0.85041
H         10.86917       37.52389        3.16242
N          9.12231       40.32047        0.43203
C          7.90540       41.13615        0.39324
C          7.40432       41.50073        1.78155
O          7.23404       42.67979        2.05811
C          6.79546       40.39712       -0.36603
H          9.11098       39.40737       -0.04683
H          8.11968       42.07602       -0.16384
H          6.53882       39.44044        0.13787
H          5.88124       41.02707       -0.41941
H          7.12600       40.17376       -1.40228
N          7.15179       40.53412        2.70584
C          6.64813       40.80708        4.05117
C          7.54314       41.77357        4.80386
O          7.04447       42.72219        5.39311
C          6.55635       39.49509        4.84318
H          7.34265       39.55522        2.44056
H          5.62238       41.23387        3.98979
H          7.55778       39.02136        4.94052
H          6.15355       39.68632        5.86114
H          5.87686       38.78408        4.32718
N          8.88665       41.57666        4.81784
C          9.83764       42.39214        5.57268
C          9.73038       43.85090        5.14838
O          9.45530       44.69319        5.99202
C         11.27048       41.81452        5.39942
C         11.33281       40.36174        5.94614
C         12.59804       39.60334        5.64834
O         13.76645       39.92542        6.21622
O         12.54854       38.60154        4.95504
H          9.23858       40.79845        4.24302
H          9.59015       42.33054        6.65686
H         12.01252       42.44408        5.93668
H         11.52023       41.83525        4.32126
H         10.52371       39.75296        5.50503
H         11.15634       40.36866        7.03994
N          9.87386       44.21551        3.84666
C          9.68700       45.57474        3.38674
H          8.65685       45.91748        3.62653
H         10.42714       46.24872        3.86453
H          9.81783       45.62048        2.28353
H         10.08845       43.50037        3.14892
Ca        15.47214       38.45232        5.90016
O         14.81824       37.78866        2.99015
H         14.20692       37.07306        3.29732
H         15.01986       37.55400        2.05017
O         14.35618       35.69250        5.78206
H         13.66053       35.22124        5.25991
H         14.52252       35.10955        6.56464

Ca 1.0



