%chk=holoCaM-CaMKII.loop3.water1.frame409.chk
%nprocshared=20
%mem=10GB
%nosave
#b3lyp/svp scf=(tight,noincore,xqc) Test 
#IOP(5/87=12) Density=Current Pop=(MK,readradii) iop(6/33=2) iop(6/42=6)

holoCaM-CaMKII.loop3.water1.frame409 

   0  1 
C         29.53628       49.35117       51.51145
C         28.20694       49.35404       52.20686
O         28.08666       48.74682       53.26168
H         30.28059       48.75597       52.08349
H         29.43073       48.91138       50.49789
H         29.90960       50.39286       51.42141
N         27.15566       50.03088       51.66247
C         25.83794       50.10744       52.28192
C         24.82472       49.46773       51.34263
O         24.71399       49.88861       50.19902
C         25.51038       51.57995       52.58623
C         24.33159       51.73446       53.50716
O         24.47212       52.39380       54.67096
O         23.24619       51.27223       53.21614
H         27.30076       50.52362       50.76706
H         25.84678       49.56329       53.25222
H         25.34131       52.13296       51.63725
H         26.38255       52.03868       53.10127
N         24.10111       48.39027       51.75066
C         23.26811       47.58510       50.85529
C         22.07975       48.34534       50.25735
O         21.58596       47.92462       49.22077
C         22.86286       46.30142       51.61891
C         22.19214       45.19314       50.79588
C         22.18394       43.89213       51.62817
C         21.59902       42.67600       50.89682
N         20.15762       42.79762       50.68647
H         24.23353       48.06959       52.72279
H         23.92469       47.27315       50.01176
H         22.22344       46.55735       52.49359
H         23.81673       45.87770       52.00781
H         22.78594       45.00752       49.87498
H         21.16655       45.50828       50.51088
H         21.64364       44.04293       52.58843
H         23.24106       43.63900       51.86920
H         21.78668       41.77695       51.52639
H         22.12100       42.52447       49.92593
H         19.94180       43.59908       50.05345
H         19.80667       41.91687       50.24540
H         19.67440       42.92515       51.60567
N         21.54163       49.43727       50.87335
C         20.37115       50.17694       50.37920
C         20.55166       51.70284       50.42504
O         19.61093       52.39839       50.06563
C         19.11337       49.73658       51.17079
C         19.38475       49.64328       52.64235
O         19.87375       50.69323       53.31811
O         19.32296       48.55623       53.19510
H         21.91628       49.69377       51.79581
H         20.16322       49.93005       49.31396
H         18.83674       48.71574       50.82375
H         18.24932       50.40067       50.95387
N         21.71545       52.30472       50.81108
C         21.91385       53.75115       50.81308
C         21.08756       54.54241       51.82186
O         21.18385       55.76132       51.78454
H         22.53118       51.72565       51.03176
H         21.69100       54.13387       49.79305
H         22.98283       53.96927       51.02682
N         20.25269       53.96117       52.73390
C         19.38104       54.74271       53.61405
C         20.10902       55.61051       54.64016
O         19.43011       56.40112       55.28152
C         18.34557       53.84445       54.33873
C         18.91416       52.88453       55.35997
N         18.07719       52.11829       56.09448
O         20.11829       52.80036       55.54201
H         20.17419       52.94236       52.74812
H         18.79637       55.42319       52.95491
H         17.77138       53.26463       53.58421
H         17.62752       54.50568       54.87172
H         17.05706       52.17664       55.96401
H         18.44878       51.47760       56.80880
N         21.45197       55.51952       54.87913
C         22.13338       56.37109       55.84916
C         22.78865       55.61373       56.98847
O         23.38456       56.27464       57.82837
H         22.02139       54.83875       54.35647
H         21.43502       57.10301       56.30705
H         22.91562       56.95083       55.31420
N         22.76139       54.25246       57.09042
C         23.46192       53.53680       58.15881
C         23.54689       52.03893       57.89943
O         22.86652       51.52925       57.01857
C         22.80816       53.76299       59.54743
C         21.42318       53.15333       59.62807
C         21.24464       51.89509       60.23166
C         20.30771       53.81748       59.09107
C         19.97881       51.30650       60.28449
C         19.03736       53.23386       59.16156
C         18.86915       51.97557       59.75103
O         17.64158       51.41901       59.79580
H         22.29555       53.71595       56.34960
H         24.51041       53.91006       58.16548
H         22.77126       54.83218       59.84347
H         23.45959       53.27090       60.30194
H         22.08970       51.35797       60.64331
H         20.41790       54.78913       58.62716
H         19.86330       50.32968       60.73788
H         18.18253       53.75708       58.75166
H         17.48631       50.54585       60.18428
N         24.39747       51.27107       58.64162
C         24.52171       49.82818       58.46412
C         24.35202       49.08332       59.77762
O         24.42296       49.67795       60.84509
C         25.87428       49.45758       57.78249
C         27.09587       49.95349       58.60370
C         25.89819       50.01100       56.34828
C         28.44463       49.52943       58.01923
H         25.00165       51.73615       59.33659
H         23.70381       49.46811       57.80495
H         25.92585       48.34994       57.70492
H         27.03563       49.53695       59.63155
H         27.08850       51.06214       58.67553
H         25.01157       49.65340       55.78567
H         25.89834       51.11959       56.36030
H         26.78842       49.65876       55.79147
H         28.50360       48.42337       57.94610
H         28.61262       49.97780       57.01898
H         29.26019       49.88890       58.68162
N         24.10579       47.74549       59.74309
C         23.99160       46.88258       60.91213
C         24.94831       45.70478       60.76257
O         25.67741       45.65197       59.78450
C         22.53403       46.40532       61.03853
O         22.15277       45.67180       59.90696
H         23.97333       47.30532       58.82047
H         24.24266       47.43491       61.84438
H         21.87796       47.29869       61.14461
H         22.41895       45.77805       61.94972
H         21.22250       45.37047       60.07730
N         24.98125       44.69958       61.68029
C         25.80820       43.50319       61.52361
C         25.45280       42.75222       60.24951
O         26.35071       42.40209       59.49696
C         25.62285       42.57035       62.72358
H         24.37160       44.77167       62.50886
H         26.88391       43.78926       61.49546
H         26.27002       41.67359       62.60981
H         25.91750       43.09502       63.65703
H         24.56549       42.24165       62.81208
N         24.14887       42.50673       59.93362
C         23.71327       41.79363       58.73349
C         24.33081       42.37241       57.47374
O         24.91702       41.62847       56.69995
C         22.18133       41.85203       58.62467
H         23.42552       42.87404       60.57195
H         24.01048       40.72482       58.81292
H         21.71515       41.39306       59.52218
H         21.83020       42.90475       58.54768
H         21.83376       41.29753       57.72694
N         24.24695       43.70348       57.21919
C         24.79575       44.34174       56.02338
C         26.29175       44.10650       55.92899
O         26.74324       43.59294       54.91479
C         24.46265       45.85014       56.03167
C         22.93818       46.04271       55.96269
C         22.50726       47.46740       56.06227
O         22.83785       48.34562       55.10703
O         21.74683       47.80915       56.95276
H         23.77887       44.28522       57.92952
H         24.31801       43.90535       55.11604
H         24.92686       46.35068       55.15259
H         24.87372       46.31132       56.95231
H         22.43186       45.49478       56.78119
H         22.56123       45.62946       55.00169
N         27.11346       44.42030       56.96714
C         28.54269       44.18533       56.96371
H         29.07193       45.14059       57.15968
H         28.79594       43.46348       57.76925
H         28.90309       43.77267       55.99837
H         26.70658       44.81850       57.81931
Ca        21.35552       50.00599       54.84322
O         19.18240       49.10767       56.60616
H         19.31196       48.72287       57.50872
H         18.84939       48.35769       56.05349

Ca 1.0



