%chk=holoCaM-CaMKII.loop1.water2.frame357.chk
%nprocshared=20
%mem=10GB
%nosave
#b3lyp/svp scf=(tight,noincore,xqc) Test 
#IOP(5/87=12) Density=Current Pop=(MK,readradii) iop(6/33=2) iop(6/42=6)

holoCaM-CaMKII.loop1.water2.frame357 

   0  1 
C         60.27646       63.32671       24.80641
C         61.06963       64.11180       25.79944
O         60.49849       64.93998       26.49324
H         59.21322       63.64908       24.82052
H         60.69133       63.48256       23.79014
H         60.32637       62.24947       25.07082
N         62.39927       63.87309       25.95784
C         63.17046       64.54039       26.99256
C         63.54146       65.96187       26.56590
O         64.43120       66.12105       25.74103
C         64.41348       63.69222       27.31849
C         65.04326       64.05799       28.61408
O         64.51779       65.01116       29.39621
O         66.00006       63.41689       29.01035
H         62.82965       63.11144       25.40920
H         62.53421       64.54669       27.90800
H         65.15547       63.74114       26.49172
H         64.09937       62.63244       27.44012
N         62.84313       67.04019       27.02777
C         63.11983       68.41524       26.60101
C         64.41212       68.98800       27.18874
O         64.88243       69.96883       26.62782
C         61.94845       69.36250       26.95520
C         60.77570       69.45178       25.94921
C         59.96452       68.18962       25.60431
C         60.59331       67.22781       24.57264
N         60.85473       67.86478       23.28033
H         62.02584       66.85770       27.62394
H         63.24518       68.43464       25.49578
H         62.32738       70.40858       26.98368
H         61.58860       69.13856       27.98249
H         61.11992       69.93515       25.01229
H         60.06113       70.16375       26.41770
H         59.01362       68.53460       25.14097
H         59.69662       67.65292       26.53931
H         59.86325       66.40403       24.40971
H         61.52629       66.77606       24.94172
H         61.12887       67.12689       22.59135
H         59.99713       68.34799       22.92776
H         61.64696       68.54077       23.35689
N         65.02309       68.49311       28.30807
C         66.28868       69.03623       28.82187
C         67.39774       67.98848       28.83656
O         68.50667       68.32414       29.23129
C         66.11473       69.72212       30.20248
C         65.69665       68.84948       31.35020
O         65.60404       69.38327       32.58312
O         65.44292       67.67156       31.19013
H         64.58400       67.70893       28.80910
H         66.65646       69.84581       28.15445
H         65.37246       70.54330       30.10820
H         67.08820       70.18341       30.48141
N         67.19903       66.71742       28.37681
C         68.25840       65.72660       28.29170
C         68.78854       65.22737       29.62463
O         69.72687       64.44352       29.58530
H         66.28674       66.44898       27.98884
H         69.09671       66.16186       27.70361
H         67.88565       64.84434       27.72908
N         68.28847       65.62621       30.83550
C         68.92149       65.23282       32.09457
C         68.84356       63.73441       32.40307
O         69.56455       63.29260       33.28628
C         68.47162       66.13723       33.26924
C         67.09096       65.95127       33.84437
O         66.26795       64.96816       33.45542
O         66.73432       66.67721       34.75713
H         67.51536       66.29967       30.86367
H         70.00079       65.47399       31.96205
H         68.57461       67.19334       32.93647
H         69.17390       65.98022       34.11524
N         68.03276       62.89008       31.69995
C         68.05397       61.43843       31.82980
C         66.72800       60.83295       32.24275
O         66.60391       59.62093       32.13484
H         67.40241       63.27799       30.99009
H         68.83899       61.08196       32.52991
H         68.30376       61.03787       30.82289
N         65.70582       61.58287       32.74713
C         64.39904       61.02808       33.10084
C         63.30192       61.78409       32.36133
O         63.59301       62.74523       31.66453
C         64.17063       61.09964       34.63356
C         65.23286       60.31955       35.41418
O         64.17482       62.43561       35.05882
H         65.85421       62.58743       32.90138
H         64.33515       59.95823       32.80123
H         63.18015       60.63680       34.85476
H         63.64793       62.47459       35.89998
H         66.24045       60.75732       35.25232
H         65.00434       60.36527       36.50101
H         65.24079       59.25419       35.10226
N         62.00242       61.39391       32.47094
C         60.88575       62.10744       31.85809
C         59.91599       62.51152       32.95968
O         59.53246       61.67034       33.76082
C         60.22055       61.23414       30.75505
C         61.25000       60.98216       29.61595
C         58.96449       61.93833       30.19531
C         60.75302       60.04810       28.51176
H         61.78588       60.54616       33.01752
H         61.23022       63.02949       31.34398
H         59.91071       60.26321       31.20052
H         62.16345       60.51478       30.04010
H         61.54496       61.95229       29.15479
H         58.21873       62.10734       30.99738
H         59.23191       62.91778       29.74316
H         58.45363       61.31830       29.43360
H         61.56154       59.90675       27.76322
H         60.48737       59.05899       28.93969
H         59.87969       60.46961       27.97564
N         59.43437       63.78659       33.01285
C         58.47307       64.25742       34.00413
C         57.09819       64.35968       33.37321
O         56.95260       64.11299       32.18640
C         58.91058       65.63139       34.58983
C         60.21005       65.54644       35.39943
O         59.00757       66.60242       33.57555
H         59.68784       64.43149       32.25674
H         58.37970       63.52256       34.83307
H         58.14302       65.99051       35.30622
H         59.91572       66.55046       33.17959
H         60.47224       66.55513       35.78796
H         60.08142       64.85742       36.25916
H         61.03922       65.18285       34.76422
N         56.02396       64.69178       34.13827
C         54.66639       64.80686       33.61272
C         54.59458       65.89214       32.55234
O         54.13142       65.62876       31.45191
C         53.65426       65.10453       34.75255
C         53.54992       63.93108       35.73508
O         54.02114       66.26933       35.44825
H         56.18406       64.86355       35.14163
H         54.36212       63.84109       33.14875
H         52.65308       65.24559       34.28157
H         53.21674       66.58345       35.93722
H         53.23523       63.01102       35.19885
H         54.51687       63.73772       36.24368
H         52.78938       64.16037       36.51097
N         55.04543       67.14300       32.83057
C         54.98056       68.27146       31.90699
C         55.70552       67.98426       30.60507
O         55.15112       68.30040       29.56089
C         55.49271       69.54496       32.61736
C         54.45709       69.96072       33.68528
C         54.89709       71.13260       34.56310
C         53.72443       71.56008       35.46442
N         54.11733       72.61491       36.39514
H         55.46609       67.29871       33.75891
H         53.91862       68.46641       31.63242
H         55.58584       70.38420       31.89373
H         56.49489       69.35210       33.06159
H         54.22617       69.11139       34.36366
H         53.52098       70.23703       33.15036
H         55.20448       71.99519       33.93401
H         55.76174       70.80995       35.18410
H         53.35031       70.68797       36.04669
H         52.89248       71.92819       34.82157
H         53.27632       72.91510       36.94009
H         54.83638       72.24885       37.06038
H         54.49688       73.43786       35.87424
N         56.89646       67.32221       30.56911
C         57.54140       66.94856       29.30805
C         56.59548       66.08943       28.47768
O         56.28702       66.47232       27.35703
C         58.90239       66.25199       29.55171
C         59.89489       67.23689       30.20428
C         61.27118       66.66642       30.41587
O         62.24540       67.24653       29.96964
O         61.45692       65.56225       31.15554
H         57.32493       67.03832       31.46231
H         57.75725       67.86988       28.72102
H         59.32116       65.93313       28.57435
H         58.76566       65.34803       30.18408
H         59.50446       67.56418       31.18356
H         59.98135       68.13963       29.56190
N         56.03684       64.95722       28.98480
C         55.04488       64.19348       28.25597
H         54.16885       64.83864       28.02287
H         55.47533       63.80083       27.31172
H         54.68899       63.34162       28.87437
H         56.28409       64.65130       29.93260
Ca        65.33269       64.98525       31.45125
O         62.59302       67.68036       33.08623
H         63.15734       68.39084       32.69405
H         62.29871       68.04654       33.95699
O         63.51640       65.30708       34.23007
H         63.17488       64.48677       33.79370
H         64.15567       64.98822       34.91424

Ca 1.0



