%chk=holoCaM.loop3.water2.frame285.chk
%nprocshared=20
%mem=10GB
%nosave
#b3lyp/svp scf=(tight,noincore,xqc) Test 
#IOP(5/87=12) Density=Current Pop=(MK,readradii) iop(6/33=2) iop(6/42=6)

holoCaM.loop3.water2.frame285 

   0  1 
C         46.01548       65.52015       83.38975
C         47.33461       65.73400       84.07848
O         47.41257       65.54699       85.28424
H         45.24501       66.18994       83.82158
H         46.08937       65.71897       82.29897
H         45.69823       64.46327       83.52262
N         48.43616       66.07518       83.35559
C         49.77103       66.15945       83.93491
C         49.94955       67.43905       84.74187
O         49.84688       68.52104       84.17979
C         50.80383       66.09174       82.80028
C         52.21218       65.86161       83.24906
O         53.08004       65.76021       82.39841
O         52.55029       65.69966       84.54291
H         48.33261       66.16693       82.33259
H         49.92316       65.25107       84.56250
H         50.74976       67.01410       82.18237
H         50.55113       65.22584       82.15048
N         50.21846       67.38256       86.07395
C         50.39680       68.56737       86.91161
C         51.62261       69.39806       86.54243
O         51.45844       70.60024       86.38287
C         50.34480       68.21601       88.41600
C         51.39166       67.21544       88.94116
C         51.19910       66.89819       90.43929
C         49.82924       66.26381       90.76419
N         49.73745       65.89571       92.17582
H         50.24386       66.45148       86.51137
H         49.50509       69.22387       86.77759
H         49.33454       67.79081       88.57650
H         50.41682       69.15662       89.00743
H         52.40863       67.63870       88.80281
H         51.33619       66.25970       88.38326
H         51.32502       67.82675       91.03745
H         51.99805       66.18403       90.73532
H         49.67810       65.35579       90.14026
H         49.00887       66.97864       90.54481
H         48.79217       65.48691       92.35976
H         50.46521       65.18267       92.40992
H         49.86030       66.74274       92.77706
N         52.86649       68.85259       86.37389
C         54.05414       69.67208       86.09803
C         54.52034       69.60833       84.64737
O         55.49831       70.27340       84.33149
C         55.19323       69.36302       87.09930
C         55.81481       67.99711       86.98851
O         56.83435       67.67031       87.80438
O         55.42891       67.18887       86.16398
H         52.96843       67.82889       86.42992
H         53.81010       70.74513       86.25981
H         54.80826       69.49381       88.13302
H         56.00753       70.10474       86.94483
N         53.83272       68.92431       83.68745
C         54.16581       69.03792       82.27493
C         55.46497       68.38265       81.85270
O         55.85855       68.61145       80.71665
H         52.97730       68.41163       83.93818
H         54.20491       70.12007       82.01939
H         53.35669       68.58694       81.66081
N         56.17398       67.53388       82.65713
C         57.42518       66.90769       82.22039
C         57.26139       65.91707       81.04878
O         58.26060       65.35659       80.62174
C         58.17314       66.25513       83.41487
C         57.61874       64.93547       84.00381
N         58.62606       63.87889       83.94112
O         56.47333       64.49454       83.35002
H         55.83817       67.35535       83.61287
H         58.09542       67.73150       81.88570
H         58.24798       66.99362       84.24341
H         59.22165       66.08010       83.08737
H         59.46478       64.16390       84.49473
H         58.23589       63.01243       84.37485
N         56.04744       65.66611       80.46898
C         55.83393       64.75192       79.35696
C         55.86153       63.31527       79.81309
O         56.57978       62.51863       79.23290
H         55.20908       66.15587       80.79660
H         56.54490       64.96265       78.52733
H         54.80793       64.92257       78.96531
N         55.05793       62.93236       80.84645
C         54.95797       61.59554       81.44689
C         53.96999       61.65773       82.60074
O         54.10693       62.53482       83.44214
C         56.29946       61.09713       82.04187
C         57.27200       60.54340       81.03155
C         58.51776       61.15656       80.82625
C         56.94937       59.38227       80.30357
C         59.42013       60.62579       79.89917
C         57.85914       58.84595       79.38774
C         59.09844       59.46820       79.18155
O         59.98772       58.96196       78.30339
H         54.47029       63.67840       81.25250
H         54.58990       60.85583       80.70267
H         56.09949       60.24676       82.73276
H         56.74606       61.91304       82.64677
H         58.78367       62.05089       81.37496
H         55.99971       58.88275       80.45469
H         60.37336       61.11319       79.74223
H         57.60155       57.94587       78.84239
H         59.81117       58.15530       77.79826
N         52.98460       60.72914       82.74071
C         52.03353       60.74541       83.84801
C         52.30223       59.54142       84.73370
O         52.10573       58.41666       84.29076
C         50.58266       60.75530       83.28701
C         50.35914       62.01116       82.40450
C         49.54122       60.68719       84.42186
C         49.06355       61.95883       81.59382
H         52.92141       59.96076       82.05388
H         52.16989       61.66056       84.46648
H         50.46660       59.84991       82.64944
H         51.17703       62.09743       81.65816
H         50.37720       62.92424       83.03830
H         49.68369       59.77194       85.02989
H         49.62437       61.57416       85.08503
H         48.51042       60.63183       84.02081
H         48.16714       61.92039       82.24229
H         48.98933       62.86883       80.96204
H         49.07440       61.06977       80.92639
N         52.78856       59.70695       85.99878
C         53.05587       58.58266       86.89405
C         51.75767       57.95704       87.38279
O         50.69299       58.48725       87.10327
C         53.89512       59.04588       88.10136
O         53.19555       60.00468       88.84331
H         53.01080       60.66263       86.31909
H         53.65953       57.82833       86.34324
H         54.84768       59.48884       87.73699
H         54.13296       58.16998       88.74610
H         53.70253       60.13334       89.68689
N         51.77295       56.82299       88.14156
C         50.55600       56.25708       88.71891
C         50.07907       57.04267       89.94417
O         49.02333       56.70982       90.46614
C         50.78034       54.78909       89.09050
H         52.67359       56.34812       88.30589
H         49.75892       56.26266       87.94115
H         51.08982       54.22131       88.18623
H         51.56789       54.69270       89.86649
H         49.83685       54.33926       89.46851
N         50.78612       58.09956       90.44947
C         50.35184       58.92301       91.57415
C         49.97386       60.33001       91.11493
O         49.60421       61.14276       91.94978
C         51.46602       58.97365       92.62255
H         51.66939       58.37458       90.00322
H         49.44708       58.48959       92.05470
H         52.38134       59.43535       92.19333
H         51.14343       59.57076       93.50240
H         51.70895       57.94664       92.96850
N         49.96069       60.65540       89.78987
C         49.45750       61.90821       89.24834
C         48.09551       61.62512       88.64781
O         47.13584       62.27018       89.04737
C         50.43455       62.47006       88.19386
C         51.73722       62.98305       88.83159
C         52.73350       63.48616       87.81812
O         53.90901       63.98627       88.24237
O         52.49803       63.44653       86.62027
H         50.21880       59.94277       89.09983
H         49.31534       62.67583       90.04247
H         49.95696       63.32745       87.67001
H         50.65915       61.68119       87.44096
H         52.21525       62.17957       89.42218
H         51.49447       63.81496       89.52496
N         47.92352       60.62923       87.73222
C         46.63264       60.24676       87.19918
H         45.80931       60.88591       87.58073
H         46.65475       60.31385       86.09287
H         46.41764       59.19633       87.49196
H         48.73430       60.07927       87.42046
Ca        54.68137       65.01763       84.63409
O         56.94029       64.17859       87.11418
H         57.90888       64.21767       87.31435
H         56.55881       64.96947       87.56996
O         55.79536       61.97013       85.56813
H         56.41143       61.21050       85.41746
H         55.28232       61.72332       86.37746

Ca 1.0



