%chk=holoCaM-CaMKII.loop2.water2.frame220.chk
%nprocshared=20
%mem=10GB
%nosave
#b3lyp/svp scf=(tight,noincore,xqc) Test 
#IOP(5/87=12) Density=Current Pop=(MK,readradii) iop(6/33=2) iop(6/42=6)

holoCaM-CaMKII.loop2.water2.frame220 

   -2  1 
C         21.10928       35.84744       51.83930
C         20.35804       35.57421       53.11137
O         20.92505       35.73341       54.18291
H         21.99765       35.18758       51.77233
H         20.47100       35.67557       50.94597
H         21.43764       36.90866       51.82711
N         19.05170       35.19630       53.06615
C         18.23453       35.01631       54.25809
C         18.67620       33.79754       55.06126
O         18.63643       32.69864       54.52484
C         16.75361       34.85671       53.83853
C         15.80220       34.93645       54.99332
O         14.60522       34.79217       54.80722
O         16.24930       35.22623       56.22439
H         18.60317       35.10647       52.14076
H         18.31854       35.94497       54.86458
H         16.61924       33.88934       53.30785
H         16.47398       35.67538       53.14166
N         19.07640       33.91561       56.36256
C         19.44381       32.77216       57.19883
C         18.55070       32.62715       58.43510
O         18.76890       31.68698       59.18697
C         20.91134       32.90879       57.61506
H         19.12276       34.85660       56.78050
H         19.34869       31.82407       56.62626
H         21.22885       32.03128       58.21915
H         21.55513       32.95275       56.71059
H         21.06674       33.83246       58.21241
N         17.53504       33.49901       58.71558
C         16.67194       33.40133       59.89196
C         15.20082       33.20599       59.50914
O         14.62417       32.22965       59.96790
C         16.93556       34.57299       60.87562
C         16.83636       35.98285       60.36769
O         16.47896       36.25888       59.10992
O         17.13462       36.90465       61.11034
H         17.37417       34.28332       58.08249
H         16.94514       32.50418       60.49169
H         17.98475       34.46131       61.22816
H         16.26811       34.46749       61.75762
N         14.52515       34.06009       58.68317
C         13.12380       33.91565       58.32165
C         12.27779       35.09807       58.76877
O         11.08429       35.07285       58.50351
H         15.00501       34.84763       58.25502
H         12.68488       32.99995       58.77174
H         13.05399       33.81658       57.21699
N         12.79407       36.14499       59.48249
C         11.96030       37.21624       60.03075
C         11.24918       38.08469       58.98665
O         10.31431       38.77428       59.36926
C         12.77295       38.11686       60.99439
C         13.92175       38.84922       60.33969
N         14.64887       39.74153       61.04450
O         14.20339       38.64386       59.17203
H         13.79405       36.13944       59.72510
H         11.17104       36.71939       60.63844
H         13.18578       37.49920       61.82142
H         12.08533       38.86814       61.43837
H         14.43805       39.93421       62.03343
H         15.41414       40.25478       60.58762
N         11.64986       38.14829       57.68287
C         10.96883       38.94052       56.66206
C         11.78748       40.10271       56.10998
O         11.30039       40.74499       55.18987
H         12.46714       37.60614       57.39006
H         10.02123       39.37273       57.05124
H         10.69949       38.25635       55.83006
N         12.98300       40.48647       56.64778
C         13.73200       41.67413       56.22482
C         15.19540       41.36022       55.91230
O         15.63979       40.23929       56.10708
C         13.67466       42.73072       57.36927
C         12.26172       43.28458       57.55512
O         14.10616       42.17523       58.58719
H         13.34377       39.97072       57.45426
H         13.28927       42.11999       55.30687
H         14.29925       43.61894       57.12860
H         15.08911       42.05575       58.52540
H         11.92161       43.77592       56.61801
H         11.54636       42.48168       57.82753
H         12.26392       44.04710       58.36379
N         16.02095       42.36701       55.49802
C         17.47766       42.27738       55.44385
C         18.00624       42.83411       56.74623
O         17.51551       43.85092       57.22134
C         18.05796       43.04923       54.21806
C         17.73828       42.27196       52.91729
C         19.58632       43.26520       54.36037
C         18.15322       43.00858       51.64037
H         15.61441       43.30852       55.38834
H         17.81863       41.21958       55.38048
H         17.58817       44.05725       54.18276
H         16.64459       42.09019       52.85689
H         18.25220       41.28435       52.94157
H         20.12383       42.29529       54.42440
H         19.99808       43.85969       53.52292
H         19.81857       43.86161       55.26756
H         17.87913       42.39596       50.75650
H         17.63003       43.98544       51.57629
H         19.24826       43.17392       51.59198
N         19.04592       42.21051       57.36207
C         19.57405       42.60495       58.65670
C         20.98168       43.11437       58.50848
O         21.52970       43.09967       57.41128
C         19.59782       41.37925       59.58461
C         18.27658       40.69701       59.68601
O         17.64986       40.33630       58.55314
O         17.85253       40.33588       60.77128
H         19.48245       41.39979       56.89513
H         18.95360       43.41104       59.10607
H         19.96654       41.63471       60.59992
H         20.29590       40.63390       59.14061
N         21.63065       43.60578       59.59325
C         22.99069       44.10056       59.53149
C         23.96302       42.94356       59.29864
O         24.74915       43.05189       58.37252
C         23.28715       45.00084       60.74785
C         24.47462       45.89501       60.50493
C         25.78472       45.43552       60.70255
C         24.26534       47.21636       60.06577
C         26.86813       46.29282       60.47528
C         25.34819       48.06249       59.82732
C         26.64963       47.60333       60.03637
H         21.11653       43.66910       60.48725
H         23.04469       44.80216       58.66450
H         23.36126       44.48850       61.72454
H         22.40032       45.66853       60.83563
H         25.96430       44.42361       61.04316
H         23.26214       47.58909       59.89413
H         27.87824       45.94273       60.63918
H         25.17516       49.07370       59.48109
H         27.48714       48.26435       59.85692
N         23.94325       41.77475       60.02970
C         24.82394       40.63643       59.76487
C         24.63907       39.96581       58.40541
O         25.39654       39.04808       58.11608
C         24.45235       39.61932       60.85612
C         23.96639       40.51241       61.97511
C         23.12962       41.51968       61.19750
H         25.86866       40.99659       59.89392
H         23.55918       39.03429       60.52923
H         25.25832       38.90047       61.11779
H         23.41605       39.98505       62.78330
H         24.84540       41.03860       62.41145
H         22.18271       41.04251       60.86914
H         22.92312       42.39834       61.82938
N         23.64233       40.32715       57.54231
C         23.40067       39.67744       56.25664
C         23.63197       40.62957       55.08973
O         23.56221       40.17904       53.95481
C         21.93970       39.18365       56.19113
C         21.56529       38.20944       57.31915
C         20.10537       37.83551       57.29472
O         19.62257       37.00400       58.23615
O         19.34742       38.28783       56.45040
H         22.99534       41.07828       57.80974
H         24.09261       38.81650       56.12239
H         21.75240       38.68690       55.21263
H         21.27982       40.07506       56.26007
H         21.76832       38.68024       58.30376
H         22.17664       37.28664       57.22839
N         23.88887       41.95620       55.27390
C         24.08801       42.86541       54.16910
H         24.98177       42.56105       53.58589
H         23.19096       42.86844       53.51437
H         24.24661       43.89520       54.55609
H         23.92683       42.35645       56.21527
Ca        16.86063       38.29783       58.38991
O         14.61446       37.72472       56.06585
H         14.33662       36.87617       56.48972
H         14.09191       37.77294       55.22651
O         17.03075       38.18558       54.58253
H         16.56071       38.09356       53.71691
H         17.61159       38.97743       54.46673

Ca 1.0



