%chk=holoCaM-CaMKII.loop4.water1.frame479.chk
%nprocshared=20
%mem=10GB
%nosave
#b3lyp/svp scf=(tight,noincore,xqc) Test 
#IOP(5/87=12) Density=Current Pop=(MK,readradii) iop(6/33=2) iop(6/42=6)

holoCaM-CaMKII.loop4.water1.frame479 

   -3  1 
C         89.47181       65.66170       66.14813
C         89.77746       65.53437       64.68390
O         88.98311       64.95355       63.95888
H         88.52648       66.22630       66.28579
H         89.36799       64.65152       66.59548
H         90.28262       66.19920       66.68527
N         90.92181       66.06736       64.17665
C         91.28880       65.98966       62.76882
C         91.47587       64.54146       62.32618
O         92.38257       63.86929       62.79659
C         92.56658       66.82656       62.53745
C         93.20970       66.59472       61.20418
O         94.35151       66.17316       61.17630
O         92.56327       66.83751       60.04925
H         91.54923       66.56910       64.82440
H         90.46913       66.44308       62.17208
H         93.31748       66.54929       63.30944
H         92.32769       67.90416       62.66879
N         90.62419       64.00992       61.40421
C         90.73211       62.65704       60.86590
C         91.91660       62.59154       59.90112
O         92.77617       61.73314       60.03445
C         89.42295       62.25306       60.08775
C         88.10541       62.45251       60.89246
C         89.50553       60.80276       59.56780
C         87.99690       61.66711       62.19587
H         89.85414       64.60546       61.07763
H         90.84824       61.93264       61.70200
H         89.32198       62.90628       59.19390
H         87.24562       62.17642       60.24128
H         87.97272       63.51863       61.14922
H         89.61041       60.08170       60.40447
H         88.59072       60.54793       58.98994
H         90.37160       60.67009       58.88718
H         87.01759       61.89738       62.66865
H         88.04138       60.57540       62.01336
H         88.79875       61.96919       62.89939
N         91.94645       63.45491       58.84760
C         92.85144       63.38088       57.69949
C         94.31923       63.60687       58.03567
O         95.15209       62.77664       57.70251
C         92.42902       64.45197       56.65993
C         91.00614       64.27735       56.21022
O         90.10425       65.24833       56.44949
O         90.65827       63.25701       55.63962
H         91.20451       64.17122       58.82216
H         92.74243       62.38228       57.22138
H         93.09403       64.41215       55.77067
H         92.51271       65.46242       57.11301
N         94.69812       64.77004       58.61792
C         96.06448       65.23901       58.79088
C         96.24385       66.61984       58.16024
O         97.29576       67.21374       58.34912
H         93.95070       65.39559       58.91431
H         96.80877       64.52827       58.37318
H         96.26637       65.33331       59.87765
N         95.25482       67.20039       57.40938
C         95.32644       68.53720       56.82027
C         95.32438       69.67053       57.85172
O         95.46008       70.81807       57.45045
C         94.15927       68.72655       55.81498
C         92.77408       68.66179       56.41762
O         91.79950       68.75823       55.68993
O         92.58945       68.49218       57.74001
H         94.41475       66.65369       57.19778
H         96.26988       68.59870       56.23451
H         94.23480       67.92391       55.04836
H         94.26979       69.70242       55.29647
N         95.17934       69.43669       59.18638
C         95.21746       70.47659       60.19989
C         94.03550       71.42026       60.14900
O         94.23601       72.62501       60.16657
H         95.06455       68.47388       59.52881
H         96.18023       71.03042       60.14884
H         95.17181       69.98159       61.19506
N         92.76980       70.91947       60.18945
C         91.55677       71.71875       60.41366
C         90.34879       70.78042       60.62997
O         90.73671       69.74401       61.45946
C         91.30812       72.78154       59.31585
C         91.30230       72.30636       57.84937
C         90.13187       71.43514       57.46103
N         89.21304       71.87855       56.56991
O         90.02130       70.31252       57.92624
H         92.68749       69.89254       60.15047
H         91.69360       72.25600       61.37860
H         92.12353       73.52918       59.39094
H         90.36743       73.33222       59.53564
H         92.25453       71.78889       57.60456
H         91.26592       73.23034       57.23155
H         89.28496       72.81903       56.15439
H         88.42000       71.28077       56.29469
N         89.14303       71.43764       61.17653
C         88.17687       70.46020       61.74130
C         86.78686       70.84264       61.26016
O         86.14375       71.66863       61.89378
C         88.24608       70.35135       63.31993
C         87.36102       69.20395       63.82921
C         89.65275       70.13361       63.91464
H         89.36965       72.18569       61.87129
H         88.37899       69.45120       61.32090
H         87.88357       71.31138       63.74630
H         87.38095       69.15625       64.93963
H         86.31202       69.34359       63.51091
H         87.73935       68.23228       63.44070
H         89.60726       70.14645       65.02413
H         90.07076       69.14505       63.62746
H         90.34662       70.94794       63.61822
N         86.27760       70.31878       60.10090
C         84.94602       70.66271       59.59964
C         83.85533       70.16388       60.54375
O         84.17837       69.59397       61.57351
C         84.70861       70.18988       58.13684
C         84.52483       68.70698       57.91488
N         85.57826       67.86515       57.85810
O         83.40289       68.27200       57.70308
H         86.87603       69.69613       59.54657
H         84.88556       71.77283       59.55189
H         85.50186       70.57484       57.46064
H         83.77378       70.68053       57.79364
H         86.53855       68.21238       57.95825
H         85.43278       66.86310       57.66274
N         82.53653       70.37408       60.27628
C         81.46340       69.99710       61.19311
C         81.39895       68.48811       61.42327
O         81.34667       68.06874       62.57044
C         80.10422       70.51840       60.67079
C         79.08214       70.62642       61.77950
C         79.30359       71.53931       62.82857
C         77.90358       69.86432       61.77567
C         78.37037       71.68599       63.85418
C         76.96816       70.01154       62.80931
C         77.19992       70.92507       63.85066
O         76.30711       71.08477       64.84821
H         82.28559       70.87463       59.41092
H         81.67324       70.51051       62.15686
H         79.75729       69.88054       59.82774
H         80.22162       71.55148       60.27634
H         80.19761       72.15065       62.84735
H         77.70776       69.15966       60.97770
H         78.55726       72.39762       64.64918
H         76.06210       69.41961       62.79902
H         75.47939       70.58567       64.88535
N         81.42945       67.61530       60.36739
C         81.35446       66.15013       60.49506
C         82.47609       65.55091       61.35235
O         82.40504       64.37256       61.67179
C         81.38224       65.51667       59.07542
C         81.09606       64.00279       59.02546
C         81.17330       63.48504       57.61713
O         82.06273       62.52278       57.30234
O         80.43068       63.92455       56.75410
H         81.49171       68.02158       59.42275
H         80.38190       65.91796       60.98195
H         82.37759       65.71786       58.61799
H         80.60779       66.01877       58.45530
H         80.08334       63.80148       59.43578
H         81.83854       63.43422       59.61572
N         83.52413       66.29629       61.79051
C         84.60312       65.78007       62.61460
C         84.36569       66.24718       64.03666
O         84.27748       65.41250       64.92621
C         85.96014       66.23456       62.03674
C         86.11347       65.80046       60.56777
C         87.42824       66.22743       59.98084
O         88.22163       65.33218       59.36749
O         87.76197       67.39772       60.00691
H         83.57685       67.28600       61.54192
H         84.60368       64.66647       62.62285
H         86.78408       65.80904       62.64798
H         86.02218       67.34281       62.07453
H         85.30693       66.27452       59.97408
H         86.00513       64.69957       60.47463
N         84.16162       67.56401       64.31464
C         83.79553       68.03278       65.63191
H         82.84533       67.54982       65.94901
H         84.59755       67.80002       66.36094
H         83.63131       69.13185       65.60743
H         84.21381       68.25686       63.56105
Ca        90.67872       67.96031       60.13092
O         88.66953       67.88427       56.34917
H         88.26472       67.13267       55.84770
H         88.27465       68.69390       55.93900

Ca 1.0



