%chk=holoCaM.loop4.water3.frame231.chk
%nprocshared=20
%mem=10GB
%nosave
#b3lyp/svp scf=(tight,noincore,xqc) Test 
#IOP(5/87=12) Density=Current Pop=(MK,readradii) iop(6/33=2) iop(6/42=6)

holoCaM.loop4.water3.frame231 

   -3  1 
C         38.71533       62.87219       39.08583
C         37.86108       63.75807       38.23294
O         38.37288       64.28098       37.25512
H         39.57368       63.45298       39.48284
H         38.14059       62.44616       39.93314
H         39.10123       62.03652       38.46320
N         36.54723       63.97478       38.53687
C         35.66603       64.78162       37.70004
C         34.29894       64.96358       38.35184
O         33.63013       63.98115       38.64092
C         35.50159       64.12979       36.31073
C         34.57988       64.93404       35.45527
O         33.58611       64.41813       34.96986
O         34.83350       66.23945       35.25307
H         36.16392       63.54667       39.39341
H         36.12922       65.78534       37.56551
H         35.11306       63.09320       36.41254
H         36.47531       64.08272       35.78598
N         33.81827       66.22236       38.56690
C         32.51342       66.52649       39.15396
C         31.60217       67.29199       38.18488
O         30.46926       67.55820       38.56267
C         32.70311       67.33080       40.48588
C         33.43602       68.68536       40.25539
C         33.44359       66.45824       41.51463
C         33.58450       69.56091       41.50072
H         34.41415       67.01102       38.28848
H         31.97575       65.58319       39.39524
H         31.69445       67.54860       40.90259
H         32.88032       69.27867       39.49787
H         34.45538       68.50139       39.88041
H         34.47316       66.22413       41.16932
H         33.50300       66.96182       42.50012
H         32.89238       65.50703       41.67068
H         34.21489       69.06849       42.26870
H         34.09512       70.50788       41.21949
H         32.59051       69.80494       41.92785
N         32.02961       67.72136       36.95694
C         31.23681       68.59594       36.08605
C         31.16052       68.16329       34.61805
O         30.43854       68.80876       33.86943
C         31.80506       70.02899       36.18495
C         33.26502       70.19118       35.79879
O         34.01730       69.14182       35.37648
O         33.76500       71.29835       35.88688
H         32.99400       67.51854       36.68438
H         30.18661       68.63737       36.45209
H         31.69727       70.36198       37.24044
H         31.18720       70.70932       35.55777
N         31.87938       67.12012       34.11831
C         31.85582       66.70111       32.71999
C         32.40762       67.70887       31.70883
O         32.39551       67.37983       30.53107
H         32.45051       66.56763       34.75915
H         30.80947       66.44863       32.44075
H         32.46151       65.77358       32.62165
N         32.87408       68.94646       32.05675
C         33.27011       69.96357       31.07492
C         34.64083       69.74136       30.42582
O         35.04962       70.59423       29.64906
C         33.17513       71.38480       31.69176
C         34.10623       71.68347       32.82830
O         34.86107       70.83706       33.25970
O         34.09475       72.90465       33.39262
H         32.84386       69.22352       33.04313
H         32.50981       69.97562       30.26289
H         32.13827       71.54355       32.05679
H         33.37412       72.13152       30.89406
N         35.39824       68.63180       30.65306
C         36.69303       68.42043       30.01942
C         37.82230       69.24419       30.61704
O         38.92847       69.12970       30.10818
H         35.02220       67.87697       31.23264
H         36.60404       68.60468       28.92615
H         36.98930       67.35644       30.14932
N         37.65328       70.03412       31.72098
C         38.75104       70.72629       32.39307
C         38.91448       70.19323       33.84022
O         38.43516       68.88012       33.95840
C         38.48180       72.23849       32.50187
C         38.24126       72.94543       31.16570
C         38.05206       74.42797       31.39288
N         37.03894       74.89456       32.16325
O         38.83066       75.21779       30.88033
H         36.72940       70.09538       32.14802
H         39.69857       70.55927       31.83408
H         39.34912       72.72061       33.00459
H         37.58744       72.38620       33.13826
H         37.33580       72.53280       30.67085
H         39.11715       72.78014       30.50135
H         36.36695       74.25248       32.60640
H         36.92635       75.90676       32.32366
N         40.32743       70.25032       34.25981
C         40.52232       69.97605       35.69532
C         40.38866       71.25780       36.51125
O         41.22187       72.14391       36.37415
C         41.91701       69.32091       35.91880
C         42.14557       68.96150       37.39643
C         42.07691       68.04965       35.06922
H         40.79882       71.14215       33.98030
H         39.76535       69.23598       36.03152
H         42.71028       70.03678       35.60636
H         41.37401       68.24487       37.75060
H         43.14789       68.50258       37.53267
H         42.11482       69.86763       38.02924
H         43.08409       67.60754       35.23006
H         41.30798       67.29507       35.34073
H         41.98557       68.28341       33.98783
N         39.35634       71.41882       37.38578
C         39.21417       72.59213       38.24979
C         40.26153       72.50986       39.36071
O         40.90021       71.47970       39.49434
C         37.77063       72.58866       38.84239
C         37.23096       73.87841       39.43209
N         36.13570       74.46947       38.89668
O         37.73750       74.37692       40.41913
H         38.63846       70.68449       37.42295
H         39.33668       73.49807       37.61563
H         37.67888       71.77151       39.58535
H         37.08705       72.34375       38.01469
H         35.65649       74.06968       38.07705
H         35.75265       75.32997       39.31578
N         40.47384       73.53449       40.22286
C         41.28848       73.40939       41.43379
C         40.64156       72.39735       42.38519
O         41.32007       71.50773       42.87870
C         41.39556       74.79787       42.09422
C         42.27783       74.84674       43.31866
C         43.64040       74.50457       43.24389
C         41.74868       75.28338       44.54396
C         44.45671       74.60486       44.37575
C         42.56692       75.38701       45.67156
C         43.92564       75.05179       45.59034
O         44.72876       75.16291       46.66764
H         40.01365       74.43264       40.02671
H         42.31678       73.08104       41.16371
H         40.37263       75.15892       42.33974
H         41.82903       75.50227       41.35100
H         44.07680       74.17290       42.31032
H         40.70474       75.55907       44.62466
H         45.50615       74.34620       44.30597
H         42.14467       75.73692       46.60489
H         44.40356       75.48792       47.51955
N         39.29656       72.45820       42.61961
C         38.51152       71.54584       43.46222
C         38.54731       70.08219       43.00676
O         37.98583       69.24804       43.70409
C         37.02618       71.99356       43.46317
C         36.80801       73.39985       44.05665
C         35.38081       73.86823       43.93472
O         35.04461       75.08224       44.40942
O         34.52830       73.18055       43.39302
H         38.79649       73.21537       42.14941
H         38.91297       71.59006       44.49839
H         36.41175       71.28045       44.05710
H         36.66159       71.97165       42.41034
H         37.43281       74.15375       43.53909
H         37.09702       73.38687       45.12902
N         39.19044       69.69008       41.87424
C         39.30757       68.31204       41.41945
C         40.74537       67.87372       41.62382
O         40.96979       66.86967       42.28562
C         38.89019       68.21682       39.93831
C         37.41501       68.60788       39.72749
C         37.02354       68.63951       38.27289
O         35.80066       69.07062       37.91723
O         37.81132       68.31393       37.40246
H         39.65077       70.39453       41.29583
H         38.65691       67.62612       42.00830
H         39.04413       67.17832       39.56982
H         39.53349       68.90052       39.34152
H         37.24304       69.62074       40.14008
H         36.75646       67.89565       40.26945
N         41.77882       68.61727       41.14012
C         43.16240       68.28904       41.39478
H         43.81888       69.07424       40.96076
H         43.34541       68.25153       42.49057
H         43.41343       67.31182       40.93543
H         41.58704       69.47214       40.60789
Ca        36.23086       68.98190       34.71372
O         36.22058       66.31011       32.81320
H         36.31478       65.62894       32.10323
H         35.24336       66.44585       32.88793
O         37.97310       66.27322       35.06491
H         38.44216       66.46229       35.91329
H         38.69991       66.20685       34.39714
O         36.82479       71.64519       35.63883
H         36.28607       72.19619       35.02131
H         36.16875       71.29668       36.29121

Ca 1.0



