%chk=holoCaM-CaMKII.loop1.water2.frame29.chk
%nprocshared=20
%mem=10GB
%nosave
#b3lyp/svp scf=(tight,noincore,xqc) Test 
#IOP(5/87=12) Density=Current Pop=(MK,readradii) iop(6/33=2) iop(6/42=6)

holoCaM-CaMKII.loop1.water2.frame29 

   0  1 
C         37.35273       63.89577       27.98300
C         38.15966       62.67973       27.65997
O         38.52774       62.48955       26.51039
H         36.37582       63.58781       28.40905
H         37.90225       64.51091       28.72718
H         37.18037       64.50485       27.07091
N         38.50104       61.81519       28.65050
C         39.33964       60.65258       28.41171
C         38.60580       59.64795       27.52049
O         37.62149       59.07335       27.96346
C         39.73172       60.03647       29.77170
C         40.78728       58.98111       29.70865
O         41.15134       58.37828       30.84928
O         41.34503       58.69077       28.66401
H         38.19577       62.03174       29.61304
H         40.27187       61.01496       27.92746
H         38.82579       59.61867       30.26196
H         40.13941       60.83608       30.42961
N         39.01757       59.41794       26.23871
C         38.38248       58.47991       25.31378
C         39.32658       57.36705       24.87726
O         38.88496       56.49502       24.14131
C         37.84697       59.24573       24.08142
C         36.71569       60.23654       24.41493
C         35.46548       59.52315       24.95411
C         34.32783       60.50013       25.25450
N         33.17317       59.78159       25.79508
H         39.81121       59.95420       25.87850
H         37.55165       57.94522       25.81067
H         37.45190       58.52815       23.32959
H         38.68893       59.79925       23.60811
H         36.44249       60.77514       23.48103
H         37.06994       60.98509       25.14986
H         35.70129       59.00072       25.90083
H         35.11968       58.77701       24.20522
H         34.03300       61.03238       24.32336
H         34.67306       61.25110       25.99988
H         32.40834       60.46221       26.00345
H         32.82718       59.08103       25.09938
H         33.43829       59.29090       26.68074
N         40.60607       57.28670       25.33753
C         41.48996       56.14925       25.09001
C         41.75353       55.36876       26.38981
O         42.42053       54.34611       26.33060
C         42.77547       56.59104       24.34167
C         43.61524       57.62256       25.04461
O         43.21153       58.13099       26.21778
O         44.66757       57.99110       24.54999
H         40.94543       58.02887       25.95570
H         40.99123       55.41914       24.41592
H         42.48583       57.00862       23.35266
H         43.40141       55.69024       24.15950
N         41.18179       55.73807       27.57815
C         41.19404       54.93449       28.79304
C         42.55570       54.69791       29.40885
O         42.92004       53.54622       29.59668
H         40.60443       56.58602       27.62382
H         40.70228       53.96115       28.57882
H         40.57616       55.45364       29.55966
N         43.33767       55.74090       29.80013
C         44.60943       55.58933       30.51914
C         44.63485       56.38188       31.83085
O         45.68098       56.44817       32.45975
C         45.78656       55.94536       29.58834
C         45.77146       57.32242       28.99969
O         44.83618       58.22403       29.33543
O         46.57883       57.60135       28.12771
H         43.00366       56.68947       29.57788
H         44.78176       54.52593       30.79428
H         45.74031       55.23186       28.73575
H         46.75418       55.78518       30.10983
N         43.51073       56.97497       32.32406
C         43.45409       57.75228       33.55219
C         44.28720       59.00727       33.47047
O         45.06853       59.25103       34.37483
H         42.62380       56.84819       31.82891
H         43.75595       57.12883       34.42118
H         42.39996       58.07013       33.71198
N         44.11755       59.87106       32.43328
C         44.81616       61.14927       32.24484
C         44.18134       61.92668       31.08459
O         43.61426       61.32828       30.17602
C         46.35887       61.01711       31.97240
C         47.24470       60.82324       33.20464
O         46.64424       59.97994       31.07372
H         43.39518       59.60336       31.74719
H         44.65125       61.78006       33.14633
H         46.71322       61.98457       31.54823
H         45.97419       60.02813       30.35426
H         47.04720       61.61852       33.95397
H         47.14334       59.82428       33.65697
H         48.31043       60.89704       32.89709
N         44.23138       63.28832       31.07291
C         43.60521       64.12396       30.05179
C         44.69266       64.91327       29.34141
O         45.51988       65.52591       30.00642
C         42.53100       65.05921       30.68833
C         41.49824       64.22816       31.49985
C         41.82066       65.87889       29.58681
C         40.45548       65.07738       32.23255
H         44.71931       63.76825       31.84729
H         43.06774       63.49739       29.30619
H         43.04001       65.76061       31.38604
H         42.03480       63.64926       32.28123
H         40.97510       63.50701       30.83353
H         42.54719       66.47936       29.00523
H         41.27642       65.20553       28.88875
H         41.09872       66.60084       30.01681
H         39.80012       65.62315       31.52458
H         39.80437       64.41574       32.84213
H         40.95536       65.80214       32.90975
N         44.72207       64.97686       27.98243
C         45.73011       65.69500       27.21352
C         45.14907       66.98356       26.68101
O         43.97314       67.24718       26.87746
C         46.23316       64.81633       26.03104
C         46.90316       63.53920       26.51995
O         45.15118       64.48144       25.20041
H         43.94663       64.55341       27.46155
H         46.58868       65.97605       27.86263
H         46.98113       65.39114       25.44149
H         45.52124       64.05750       24.38254
H         47.76793       63.77799       27.17238
H         46.15923       62.93485       27.07074
H         47.26927       62.94938       25.65178
N         45.93207       67.85074       25.99359
C         45.42119       69.06346       25.36467
C         44.40379       68.69365       24.29238
O         43.33961       69.29143       24.23945
C         46.57773       69.90062       24.76576
C         47.52776       70.39540       25.87015
O         47.29098       69.14551       23.81983
H         46.93172       67.61690       25.88830
H         44.92431       69.70862       26.12522
H         46.12674       70.79232       24.27143
H         47.86576       69.78136       23.31898
H         46.96814       71.00077       26.61499
H         48.01681       69.55068       26.39852
H         48.32303       71.03264       25.43082
N         44.66284       67.65924       23.44314
C         43.76238       67.19616       22.38911
C         42.38686       66.85402       22.94274
O         41.39423       67.36989       22.44794
C         44.40306       65.95855       21.71293
C         43.67148       65.48104       20.45330
C         44.42200       64.28464       19.83835
C         43.81492       63.78542       18.51763
N         43.94095       64.77178       17.44175
H         45.55387       67.15524       23.57052
H         43.66337       68.00040       21.62728
H         44.47428       65.12332       22.44370
H         45.43658       66.23353       21.40639
H         43.64500       66.32856       19.73937
H         42.62974       65.17824       20.69712
H         44.40151       63.44689       20.57030
H         45.48590       64.55314       19.65526
H         42.74732       63.51188       18.66466
H         44.36598       62.86669       18.21546
H         43.57834       64.35480       16.55447
H         43.38229       65.62852       17.64988
H         44.94640       65.02669       17.30364
N         42.26883       65.98780       23.98325
C         41.00028       65.56132       24.56941
C         40.22943       66.76294       25.09519
O         39.11016       66.98459       24.65378
C         41.26644       64.49389       25.66350
C         41.88032       63.22212       25.02367
C         42.27951       62.15774       26.00510
O         43.19590       62.40101       26.95387
O         41.84897       61.02773       25.88363
H         43.14209       65.62095       24.38039
H         40.37617       65.07497       23.78576
H         40.31706       64.22411       26.16812
H         41.94750       64.91858       26.42902
H         42.79811       63.47220       24.46077
H         41.14767       62.79993       24.30044
N         40.78313       67.61357       25.99870
C         40.11419       68.81463       26.45097
H         39.17043       68.55671       26.97420
H         40.77303       69.37423       27.14971
H         39.89214       69.47281       25.58278
H         41.72350       67.42323       26.35240
Ca        44.29207       59.49806       27.60268
O         46.78259       61.01524       28.36417
H         47.51710       61.42751       28.88404
H         47.22079       60.61707       27.57322
O         45.78364       60.62107       25.19198
H         45.90623       61.10363       24.33681
H         46.48444       59.92120       25.18605

Ca 1.0



