%chk=holoCaM-CaMKII.loop2.water1.frame376.chk
%nprocshared=20
%mem=10GB
%nosave
#b3lyp/svp scf=(tight,noincore,xqc) Test 
#IOP(5/87=12) Density=Current Pop=(MK,readradii) iop(6/33=2) iop(6/42=6)

holoCaM-CaMKII.loop2.water1.frame376 

   -2  1 
C         58.02821       62.31950       60.99057
C         59.29617       62.22896       61.79557
O         60.27674       61.69167       61.30892
H         57.23043       62.85910       61.54704
H         58.23135       62.89651       60.06214
H         57.65723       61.31087       60.72541
N         59.35590       62.80753       63.02170
C         60.58890       63.01316       63.77429
C         61.03825       61.77362       64.55591
O         60.20580       61.12928       65.17768
C         60.33660       64.20850       64.71604
C         61.56247       64.80891       65.29531
O         62.75663       64.27091       65.05547
O         61.47066       65.77676       66.02883
H         58.50332       63.28731       63.35195
H         61.38115       63.34514       63.06576
H         59.63620       63.91734       65.52486
H         59.88793       65.02965       64.11632
N         62.36427       61.43575       64.61954
C         62.91185       60.30327       65.36958
C         63.91080       60.70883       66.46898
O         64.24306       59.85718       67.28295
C         63.64488       59.39240       64.37787
H         63.02525       62.01621       64.10051
H         62.08576       59.73423       65.84986
H         64.48900       59.95206       63.91270
H         64.05781       58.49228       64.87972
H         62.95686       59.07169       63.56829
N         64.51273       61.93704       66.48763
C         65.58658       62.33137       67.40403
C         65.37710       63.71467       68.04332
O         66.23722       64.12579       68.81060
C         66.95773       62.25640       66.67085
C         67.12671       63.07784       65.41034
O         66.12457       63.79035       64.88849
O         68.20068       63.08307       64.83517
H         64.28372       62.58920       65.74154
H         65.65780       61.60435       68.24575
H         67.14850       61.19690       66.39605
H         67.75214       62.56204       67.38680
N         64.26730       64.47777       67.81632
C         64.02903       65.76803       68.45590
C         64.95652       66.90479       68.04408
O         64.85420       67.95658       68.66008
H         63.51209       64.10024       67.24076
H         64.10039       65.62634       69.55507
H         62.99323       66.10319       68.23113
N         65.87572       66.79965       67.03941
C         66.82469       67.87207       66.70716
C         66.21181       69.12276       66.04006
O         66.97115       69.99343       65.63658
C         68.00206       67.30545       65.87805
C         67.68660       66.84614       64.48482
N         68.68512       66.39487       63.69958
O         66.55072       66.88767       64.04799
H         65.95927       65.90151       66.54341
H         67.30984       68.20259       67.65105
H         68.44686       66.44894       66.43042
H         68.78060       68.09387       65.79342
H         69.65348       66.34141       64.04627
H         68.48778       66.11705       62.73575
N         64.86588       69.30829       65.92117
C         64.23662       70.47942       65.32197
C         64.28906       70.53860       63.80471
O         63.65343       71.43155       63.26173
H         64.23081       68.62791       66.34330
H         64.64427       71.41247       65.76816
H         63.15337       70.43974       65.57365
N         64.98808       69.64310       63.04691
C         64.98206       69.65414       61.58620
C         64.52558       68.31811       61.00788
O         64.42492       67.33436       61.72583
C         66.39138       70.02659       61.03790
C         66.76069       71.46365       61.41039
O         67.41016       69.17809       61.51779
H         65.55443       68.93189       63.51155
H         64.25589       70.40721       61.21159
H         66.36649       69.98205       59.92777
H         67.08263       68.24322       61.51508
H         67.67446       71.76685       60.85539
H         65.94195       72.16227       61.13637
H         66.96309       71.54939       62.49923
N         64.28137       68.22007       59.66958
C         64.00966       66.96525       58.98166
C         65.32898       66.41869       58.48383
O         66.06119       67.11914       57.79829
C         62.95950       67.15403       57.83688
C         61.56284       67.40907       58.46587
C         62.92387       65.93375       56.89104
C         60.41898       67.51226       57.45251
H         64.41875       69.05967       59.08695
H         63.58949       66.21214       59.68231
H         63.25346       68.02111       57.20466
H         61.60531       68.35396       59.04758
H         61.30578       66.58183       59.16552
H         62.61898       65.02197       57.43261
H         62.22784       66.09822       56.04445
H         63.91401       65.77396       56.41736
H         59.47810       67.77085       57.98165
H         60.63610       68.28932       56.69166
H         60.24506       66.53633       56.95019
N         65.65513       65.12534       58.76170
C         66.85917       64.46486       58.28620
C         66.50220       63.58733       57.11476
O         65.35980       63.60298       56.69682
C         67.48558       63.61879       59.40619
C         67.76176       64.42399       60.63067
O         66.74249       64.92988       61.35425
O         68.91338       64.59248       60.99354
H         64.97274       64.54220       59.26354
H         67.60181       65.21329       57.93057
H         68.44359       63.19447       59.03798
H         66.81623       62.77693       59.68779
N         67.43608       62.82600       56.49065
C         67.12724       62.07451       55.28755
C         66.06356       60.97672       55.47498
O         65.14499       60.97017       54.66687
C         68.41318       61.55037       54.62277
C         68.11812       61.10008       53.21250
C         67.63854       62.02357       52.25918
C         68.30112       59.76303       52.83774
C         67.32599       61.60668       50.96559
C         67.98977       59.35060       51.53834
C         67.49750       60.26945       50.60573
H         68.40898       62.84576       56.83081
H         66.70850       62.81898       54.57747
H         68.85568       60.74246       55.24327
H         69.15951       62.37392       54.55408
H         67.49766       63.06740       52.51366
H         68.67287       59.04102       53.55316
H         66.94704       62.32146       50.24551
H         68.12439       58.31587       51.25640
H         67.24949       59.94693       49.60368
N         66.06339       60.02940       56.47368
C         65.02905       59.00029       56.59247
C         63.66998       59.60343       56.90709
O         62.66231       59.07044       56.46458
C         65.54802       58.09123       57.71578
C         66.31844       59.04656       58.59596
C         67.02039       59.93944       57.56417
H         64.93645       58.37499       55.67701
H         64.77530       57.47220       58.22439
H         66.30618       57.40426       57.27809
H         65.57015       59.64630       59.15565
H         66.98936       58.57730       59.34663
H         67.22466       60.90579       58.06324
H         67.95681       59.48250       57.18234
N         63.57574       60.72719       57.66000
C         62.32136       61.38016       58.00686
C         61.66722       61.92419       56.74485
O         60.48229       61.70812       56.53643
C         62.59102       62.49740       59.03833
C         63.28563       61.93681       60.30444
C         63.62980       62.97791       61.32157
O         64.42151       62.63168       62.35087
O         63.25605       64.13389       61.20895
H         64.45126       61.16047       57.97746
H         61.63732       60.65940       58.50843
H         61.63100       62.98429       59.31922
H         63.25520       63.25387       58.58439
H         64.25301       61.47772       60.03706
H         62.66988       61.14550       60.78064
N         62.41541       62.59228       55.82501
C         61.89807       63.09719       54.57475
H         61.12362       63.86716       54.76449
H         62.72582       63.56156       53.99236
H         61.47723       62.26442       53.97356
H         63.41322       62.71213       55.99665
Ca        64.53093       65.00833       63.95631
O         63.39750       67.41148       64.32120
H         62.86392       67.45414       65.14789
H         62.73049       67.48960       63.59837

Ca 1.0



