%chk=holoCaM-CaMKII.loop1.water2.frame481.chk
%nprocshared=20
%mem=10GB
%nosave
#b3lyp/svp scf=(tight,noincore,xqc) Test 
#IOP(5/87=12) Density=Current Pop=(MK,readradii) iop(6/33=2) iop(6/42=6)

holoCaM-CaMKII.loop1.water2.frame481 

   0  1 
C         67.71290       79.05372       80.56579
C         67.90807       79.98859       81.71725
O         67.66623       81.17878       81.57390
H         67.35281       79.60305       79.67052
H         68.67504       78.55593       80.32545
H         66.96058       78.28485       80.84229
N         68.33422       79.50360       82.91433
C         68.49494       80.34821       84.08671
C         69.58470       81.38380       83.83268
O         70.71633       81.00124       83.56987
C         68.81025       79.47364       85.32410
C         68.64852       80.17367       86.64577
O         68.93445       79.50579       87.77568
O         68.19719       81.30391       86.71920
H         68.50988       78.48958       82.99638
H         67.52141       80.83463       84.27401
H         69.83849       79.06245       85.23545
H         68.09769       78.62070       85.35914
N         69.30907       82.71643       83.90805
C         70.30678       83.76693       83.72015
C         70.83044       84.27482       85.05436
O         71.69035       85.14536       85.03280
C         69.70421       84.93463       82.89730
C         69.58758       84.60858       81.40146
C         68.95883       85.78270       80.62761
C         69.11625       85.66154       79.10067
N         68.51678       84.44327       78.55774
H         68.36428       83.00168       84.19769
H         71.20830       83.37702       83.19790
H         70.37634       85.81906       82.96225
H         68.72069       85.22902       83.32849
H         68.98254       83.69131       81.24428
H         70.61816       84.43365       81.02121
H         69.46459       86.73075       80.91575
H         67.88435       85.86969       80.90247
H         70.19797       85.68640       78.83948
H         68.63563       86.54787       78.62858
H         68.61222       84.45950       77.51620
H         69.01987       83.59970       78.91443
H         67.50313       84.39415       78.80738
N         70.40160       83.77060       86.24852
C         70.90170       84.23443       87.53542
C         71.53961       83.11601       88.35840
O         72.02627       83.41592       89.44060
C         69.73821       84.85666       88.33182
C         69.01175       85.91885       87.54037
O         69.62524       86.87094       87.08630
O         67.67650       85.83895       87.35233
H         69.67432       83.05262       86.26163
H         71.67658       85.01750       87.38810
H         70.13404       85.30475       89.26808
H         69.02529       84.05380       88.61142
N         71.55828       81.80750       87.95262
C         72.10625       80.73436       88.77775
C         71.32902       80.47785       90.06866
O         71.76332       79.63867       90.84446
H         71.18409       81.54420       87.03049
H         73.16365       80.97593       89.01951
H         72.09905       79.78625       88.19581
N         70.17945       81.15092       90.36808
C         69.40597       80.98970       91.60326
C         68.70824       79.63939       91.76519
O         68.00715       79.48578       92.75727
C         68.35557       82.12578       91.71428
C         67.37713       82.21458       90.57216
O         66.52027       83.24542       90.53535
O         67.43200       81.45438       89.61982
H         69.85167       81.85941       89.70352
H         70.09221       81.12558       92.46867
H         68.90802       83.09119       91.73516
H         67.79689       82.04344       92.67073
N         68.84738       78.60792       90.88398
C         68.15930       77.34211       91.07472
C         66.68406       77.41519       90.73855
O         65.95770       76.52304       91.15361
H         69.48336       78.68366       90.08304
H         68.31870       76.98856       92.11794
H         68.59400       76.57142       90.40393
N         66.19208       78.36333       89.88498
C         64.81443       78.35034       89.38700
C         64.69655       79.00045       88.00761
O         65.61914       79.65483       87.54121
C         63.82977       79.05753       90.36251
C         63.65230       78.37152       91.71952
O         64.19663       80.40050       90.54798
H         66.86363       79.01782       89.46534
H         64.51636       77.28975       89.22591
H         62.82042       79.04674       89.89636
H         65.05298       80.41615       91.04965
H         63.30788       77.32579       91.57755
H         64.59356       78.38393       92.30482
H         62.88058       78.91702       92.30499
N         63.55880       78.80617       87.28209
C         63.30948       79.36403       85.95698
C         62.00709       80.14557       86.00815
O         61.00761       79.59785       86.45511
C         63.24933       78.22616       84.89163
C         64.61669       77.48976       84.83013
C         62.88468       78.80349       83.50420
C         64.63256       76.27847       83.89395
H         62.82794       78.19556       87.68061
H         64.13031       80.04083       85.64762
H         62.45938       77.50045       85.18761
H         64.87494       77.11065       85.84115
H         65.41427       78.19922       84.51420
H         63.64960       79.53752       83.16954
H         62.79186       78.00617       82.74134
H         61.89769       79.30740       83.53206
H         63.86210       75.54245       84.20652
H         64.46102       76.56865       82.83832
H         65.62906       75.79058       83.94269
N         61.93084       81.40875       85.49798
C         60.68678       82.17839       85.46128
C         60.13506       82.21544       84.05787
O         60.78985       81.75528       83.13624
C         60.89944       83.63090       85.96738
C         61.33345       83.68435       87.42750
O         61.80865       84.33024       85.15033
H         62.76681       81.79894       85.04002
H         59.91232       81.68325       86.08679
H         59.93316       84.17608       85.91618
H         62.72456       84.00511       85.34676
H         61.45396       84.74273       87.74421
H         60.57066       83.20116       88.07306
H         62.29901       83.16063       87.53621
N         58.90093       82.74253       83.82695
C         58.34597       82.87053       82.48435
C         59.13243       83.89214       81.67261
O         59.05561       83.86401       80.45239
C         56.85423       83.27960       82.53267
C         56.00208       82.20418       83.22382
O         56.72286       84.50551       83.20849
H         58.34735       83.06230       84.63599
H         58.41847       81.87921       81.98187
H         56.49157       83.38840       81.48415
H         55.80720       84.84175       83.02521
H         54.93443       82.50867       83.22161
H         56.09151       81.23923       82.68132
H         56.31407       82.05056       84.27783
N         59.85367       84.87063       82.29257
C         60.60383       85.89325       81.57538
C         61.79856       85.26053       80.89469
O         61.96034       85.39925       79.69086
C         61.06480       87.02223       82.53434
C         59.91807       87.67098       83.35191
C         58.68841       88.10660       82.52881
C         58.97251       89.14372       81.43048
N         59.37524       90.43580       81.98383
H         59.84198       84.91188       83.31967
H         59.94946       86.36531       80.81221
H         61.56616       87.80519       81.92542
H         61.81405       86.63893       83.26179
H         60.32939       88.52813       83.92524
H         59.55404       86.94502       84.10859
H         57.91729       88.51239       83.21878
H         58.24342       87.20557       82.05635
H         58.03708       89.28627       80.84557
H         59.74802       88.76990       80.72854
H         60.26592       90.34955       82.52174
H         59.52462       91.10721       81.19657
H         58.61776       90.80808       82.60202
N         62.65258       84.49996       81.63186
C         63.80125       83.77453       81.09761
C         63.36366       82.86160       79.96605
O         63.92117       82.96351       78.88211
C         64.46848       82.97217       82.23878
C         65.14442       83.91878       83.25518
C         65.64051       83.21237       84.48283
O         66.22934       83.84370       85.34484
O         65.41648       81.90031       84.66574
H         62.43212       84.39191       82.63242
H         64.55326       84.48754       80.69013
H         65.24815       82.29255       81.83263
H         63.69238       82.34749       82.73552
H         64.43960       84.70099       83.60237
H         65.99974       84.42026       82.75104
N         62.33560       81.98553       80.13171
C         61.82393       81.13605       79.07567
H         60.76464       81.40443       78.87450
H         62.39481       81.24353       78.12972
H         61.86976       80.07605       79.39931
H         61.86211       81.94178       81.03934
Ca        66.52782       84.32894       88.57111
O         63.90256       83.23995       89.47207
H         63.52452       83.61528       90.30547
H         63.40433       82.39733       89.33168
O         64.28175       85.42968       86.91435
H         64.96843       85.98885       86.47196
H         63.98206       85.96749       87.68892

Ca 1.0



