%chk=holoCaM.loop3.water2.frame75.chk
%nprocshared=20
%mem=10GB
%nosave
#b3lyp/svp scf=(tight,noincore,xqc) Test 
#IOP(5/87=12) Density=Current Pop=(MK,readradii) iop(6/33=2) iop(6/42=6)

holoCaM.loop3.water2.frame75 

   0  1 
C         87.56641       -8.01270      117.24621
C         86.52884       -7.22686      117.98667
O         86.46315       -7.34705      119.20160
H         88.57162       -7.73956      117.63255
H         87.39605       -9.09715      117.40364
H         87.53788       -7.79542      116.15817
N         85.68975       -6.38512      117.31874
C         84.72440       -5.52991      117.98954
C         83.32987       -5.84325      117.50546
O         83.05604       -5.66817      116.32471
C         85.07965       -4.07908      117.66627
C         84.34205       -3.06591      118.47229
O         83.53366       -3.38275      119.49842
O         84.62467       -1.89629      118.30428
H         85.76567       -6.31388      116.29206
H         84.78674       -5.67375      119.09159
H         84.93080       -3.87719      116.58310
H         86.15707       -3.92176      117.89500
N         82.39261       -6.33303      118.36135
C         81.04093       -6.64112      117.92205
C         80.29843       -5.35482      117.61222
O         79.86590       -5.17850      116.48172
C         80.32204       -7.50549      118.97934
C         78.92362       -8.00817      118.56903
C         78.92476       -8.76383      117.22806
C         77.57926       -9.44650      116.95983
N         77.57231      -10.07752      115.63938
H         82.66340       -6.52899      119.33784
H         81.12478       -7.26651      117.00744
H         80.24106       -6.95718      119.94276
H         80.95662       -8.40234      119.15782
H         78.20932       -7.15896      118.50773
H         78.58030       -8.69272      119.37566
H         79.71812       -9.54311      117.23227
H         79.12726       -8.04440      116.40597
H         76.75583       -8.70081      117.01087
H         77.40520      -10.22024      117.74090
H         78.36099      -10.75950      115.55503
H         76.66859      -10.58561      115.50554
H         77.66055       -9.34620      114.89631
N         80.13768       -4.39512      118.57114
C         79.45342       -3.12551      118.31865
C         80.15779       -2.24649      117.27325
O         79.55271       -1.27719      116.83652
C         79.21159       -2.36098      119.64094
C         80.47576       -2.06297      120.39866
O         80.65324       -2.56002      121.63756
O         81.34485       -1.37205      119.90197
H         80.49735       -4.59176      119.51748
H         78.44769       -3.37185      117.90974
H         78.56144       -2.98687      120.29100
H         78.66892       -1.41252      119.43716
N         81.40215       -2.54148      116.79159
C         82.02758       -1.86401      115.66251
C         82.41769       -0.40460      115.84276
O         82.91491        0.14983      114.87196
H         81.90769       -3.35033      117.17047
H         81.33787       -1.93906      114.79213
H         82.95543       -2.41443      115.39493
N         82.21749        0.30674      116.99210
C         82.48795        1.74800      117.05702
C         83.97217        2.11795      116.99458
O         84.26686        3.28877      116.79949
C         81.83882        2.38905      118.30051
C         82.57553        2.07876      119.58390
N         83.06690        3.07990      120.35082
O         82.73900        0.92153      119.93180
H         81.77039       -0.15611      117.79071
H         81.97324        2.19161      116.17419
H         80.78241        2.05029      118.37439
H         81.82157        3.49092      118.15527
H         82.94147        4.06600      120.07924
H         83.57195        2.86965      121.22410
N         84.95317        1.19207      117.19428
C         86.37687        1.47621      117.10492
C         87.16456        1.19463      118.37830
O         88.38306        1.23089      118.27970
H         84.68704        0.22463      117.38659
H         86.57745        2.52523      116.79904
H         86.78165        0.81817      116.30480
N         86.58801        0.93459      119.59707
C         87.38441        0.61079      120.79365
C         86.94464       -0.74435      121.40996
O         86.41144       -1.54838      120.42408
C         87.24730        1.69248      121.88162
C         87.78282        3.04334      121.47778
C         87.08747        3.86105      120.57058
C         88.98089        3.51290      122.04364
C         87.58268        5.12805      120.24203
C         89.47860        4.77225      121.70573
C         88.77832        5.58736      120.80673
O         89.24192        6.81151      120.48408
H         85.56181        0.96205      119.68743
H         88.45994        0.52492      120.52211
H         87.82064        1.34609      122.76706
H         86.19108        1.80098      122.20708
H         86.15367        3.53080      120.13382
H         89.53560        2.90183      122.74518
H         87.03301        5.75674      119.55302
H         90.40558        5.11406      122.14883
H         90.06096        7.16544      120.86002
N         88.05121       -1.45559      122.09552
C         87.58886       -2.60298      122.92502
C         88.15706       -2.55138      124.34977
O         89.36654       -2.56070      124.52923
C         87.93755       -4.00604      122.30408
C         89.44084       -4.18520      121.94795
C         87.05008       -4.34708      121.09736
C         89.81370       -5.63402      121.61940
H         88.56013       -0.76851      122.69653
H         86.48151       -2.57059      123.03801
H         87.67387       -4.75334      123.08494
H         90.08424       -3.91586      122.80227
H         89.71146       -3.52305      121.09761
H         85.97961       -4.22772      121.36037
H         87.30768       -3.72736      120.21832
H         87.17253       -5.40663      120.80611
H         90.90408       -5.70195      121.42254
H         89.57721       -6.28367      122.48694
H         89.28602       -6.01351      120.72304
N         87.31656       -2.54554      125.42272
C         87.78540       -2.67808      126.80362
C         88.34236       -4.08223      127.04797
O         88.35656       -4.89008      126.13542
C         86.62004       -2.41564      127.77845
O         85.63237       -3.40742      127.66765
H         86.30292       -2.48310      125.25055
H         88.56266       -1.90805      127.00257
H         86.19640       -1.39965      127.59981
H         86.98048       -2.40631      128.82764
H         84.91576       -3.04106      127.09062
N         88.77754       -4.45272      128.28774
C         89.18304       -5.81963      128.61245
C         88.02033       -6.78530      128.43920
O         88.17474       -7.77986      127.74116
C         89.68444       -5.89564      130.05953
H         88.79169       -3.74572      129.03585
H         90.03067       -6.12428      127.95824
H         90.00775       -6.93311      130.29475
H         90.55639       -5.22118      130.19268
H         88.88981       -5.59809      130.77607
N         86.81939       -6.54859      129.04835
C         85.66786       -7.45148      128.97639
C         85.09963       -7.65652      127.57055
O         84.18251       -8.45334      127.43720
C         84.54963       -6.94143      129.89525
H         86.73666       -5.69587      129.62504
H         85.99050       -8.44528      129.35963
H         84.18771       -5.94874      129.55069
H         83.69534       -7.65214      129.90618
H         84.92790       -6.84658      130.93540
N         85.60812       -7.02145      126.47667
C         85.16984       -7.28435      125.11340
C         86.21910       -8.14612      124.44162
O         85.88146       -9.23203      123.98777
C         84.92138       -5.96061      124.36566
C         83.73770       -5.19435      124.97516
C         83.46843       -3.91942      124.23242
O         83.52255       -2.73627      124.87225
O         83.16849       -3.95243      123.05063
H         86.38648       -6.36679      126.58727
H         84.22049       -7.86592      125.09491
H         84.68870       -6.18639      123.30145
H         85.83388       -5.32737      124.39976
H         83.94736       -4.96416      126.04028
H         82.82320       -5.82382      124.92758
N         87.52512       -7.76960      124.39842
C         88.55372       -8.63524      123.86529
H         89.54981       -8.15947      123.98357
H         88.56383       -9.59515      124.42649
H         88.36717       -8.83433      122.78976
H         87.81040       -6.86487      124.79270
Ca        84.35087       -2.17370      121.17223
O         81.73088        0.40699      122.65330
H         80.96531        0.74667      122.12493
H         81.56822        0.74176      123.57043
O         84.62269        0.06725      123.72084
H         85.15202       -0.65012      124.14901
H         84.98424        0.90251      124.10967

Ca 1.0



