%chk=holoCaM.loop3.water2.frame69.chk
%nprocshared=20
%mem=10GB
%nosave
#b3lyp/svp scf=(tight,noincore,xqc) Test 
#IOP(5/87=12) Density=Current Pop=(MK,readradii) iop(6/33=2) iop(6/42=6)

holoCaM.loop3.water2.frame69 

   0  1 
C         96.71215        0.39073       29.63014
C         97.06058        0.78709       31.03422
O         98.11122        0.39176       31.51840
H         95.73868        0.82507       29.31696
H         97.49938        0.74227       28.93332
H         96.63178       -0.71576       29.57125
N         96.19044        1.53316       31.76745
C         96.39440        1.87475       33.16501
C         95.45055        0.98978       33.94277
O         94.41413        1.44465       34.40330
C         96.14237        3.38589       33.37595
C         96.44365        3.85715       34.77597
O         96.94332        3.02119       35.70765
O         96.25877        5.02750       35.06339
H         95.28828        1.79986       31.34235
H         97.43506        1.65412       33.49443
H         95.08475        3.62348       33.12864
H         96.79103        3.96899       32.69151
N         95.71707       -0.34381       34.02323
C         94.78780       -1.30038       34.60818
C         94.65006       -1.16933       36.12768
O         93.78995       -1.85702       36.66075
C         95.14889       -2.74896       34.20281
C         95.17017       -2.93661       32.66818
C         95.41914       -4.40251       32.28619
C         95.61509       -4.61241       30.77206
N         94.43896       -4.23855       29.98437
H         96.58078       -0.68944       33.57982
H         93.78484       -1.10276       34.16464
H         94.37685       -3.43160       34.62211
H         96.13690       -3.02803       34.62878
H         95.97577       -2.31717       32.22262
H         94.19667       -2.60790       32.24519
H         94.57517       -5.02975       32.64827
H         96.34966       -4.74703       32.78690
H         95.83378       -5.68973       30.59997
H         96.49564       -4.02753       30.42452
H         94.62056       -4.46881       28.98026
H         93.60103       -4.77452       30.30632
H         94.25906       -3.21173       30.05123
N         95.38465       -0.28739       36.88465
C         95.07525       -0.03108       38.29961
C         94.32248        1.28157       38.47217
O         93.75231        1.49691       39.53248
C         96.30431       -0.06410       39.22488
C         97.28282        1.04287       38.95640
O         98.06012        0.98364       37.86974
O         97.46532        1.92530       39.78029
H         96.09702        0.29550       36.42558
H         94.38279       -0.82013       38.66241
H         96.83121       -1.04016       39.15618
H         95.94035        0.04558       40.26987
N         94.24422        2.18718       37.46135
C         93.41066        3.36529       37.48647
C         93.82241        4.36966       38.52327
O         92.99802        4.72640       39.35244
H         94.76102        2.02539       36.59829
H         92.35321        3.05603       37.63029
H         93.48082        3.86974       36.49664
N         95.05925        4.93901       38.47620
C         95.42935        6.09388       39.28699
C         95.66592        7.30497       38.38378
O         96.16395        8.31679       38.85787
C         96.63250        5.77687       40.20075
C         97.97370        5.73595       39.51157
N         98.95324        6.59254       39.89286
O         98.18643        4.92600       38.62317
H         95.73201        4.60419       37.76920
H         94.60314        6.35786       39.98270
H         96.44898        4.81689       40.73022
H         96.67235        6.57136       40.97784
H         98.79518        7.28096       40.64443
H         99.88040        6.56824       39.44791
N         95.28391        7.28166       37.06878
C         95.47986        8.37696       36.14040
C         96.89394        8.47828       35.60043
O         97.10663        9.34415       34.76488
H         94.76259        6.47508       36.69892
H         95.14419        9.33230       36.60009
H         94.83398        8.19386       35.25312
N         97.90701        7.64845       36.00158
C         99.26695        7.74653       35.47014
C         99.81240        6.40877       34.99159
O         99.27845        5.35925       35.31669
C        100.19965        8.25127       36.58241
C         99.94543        9.68817       36.94471
C         99.39432       10.03672       38.18778
C        100.30258       10.70071       36.04023
C         99.20813       11.38226       38.52092
C        100.12909       12.04351       36.37995
C         99.58316       12.38947       37.62407
O         99.42273       13.68248       37.96975
H         97.73235        6.94803       36.73419
H         99.30100        8.44284       34.60427
H        101.26829        8.17769       36.28494
H        100.06166        7.58882       37.45906
H         99.10905        9.27144       38.89770
H        100.73905       10.44860       35.08129
H         98.78265       11.64250       39.48177
H        100.42796       12.81242       35.67885
H         99.69351       14.40665       37.38723
N        100.94226        6.41367       34.22343
C        101.70470        5.23344       33.82552
C        103.18615        5.58420       33.87701
O        103.60012        6.50119       33.18127
C        101.32228        4.74536       32.38774
C         99.88215        4.16664       32.38884
C        102.32821        3.68233       31.87656
C         99.41590        3.64059       31.02812
H        101.31384        7.33279       33.93826
H        101.51179        4.39241       34.52412
H        101.37597        5.60791       31.68695
H         99.17395        4.96196       32.69757
H         99.81329        3.33083       33.12151
H        103.35971        4.08832       31.83176
H        102.32530        2.78849       32.53080
H        102.10629        3.37782       30.83541
H         98.36756        3.29506       31.10378
H         99.47178        4.43990       30.26153
H        100.01258        2.76391       30.70271
N        104.05267        4.82034       34.60175
C        105.50422        4.96720       34.51394
C        106.08290        3.75676       33.80368
O        105.33816        2.83946       33.49162
C        106.11235        5.13317       35.91273
O        105.85215        3.99458       36.69253
H        103.67762        4.03742       35.15532
H        105.76923        5.85882       33.90621
H        105.67592        6.02680       36.40800
H        107.21119        5.29087       35.80571
H        106.60810        3.90124       37.32899
N        107.40345        3.70166       33.46293
C        107.95229        2.54598       32.76153
C        108.04886        1.32199       33.65898
O        108.24413        0.23645       33.12739
C        109.32549        2.86261       32.16616
H        108.00567        4.51578       33.65550
H        107.27520        2.31586       31.90728
H        109.70427        1.99243       31.58729
H        109.24039        3.72656       31.47284
H        110.05269        3.11074       32.96758
N        107.95858        1.40509       35.02272
C        108.02716        0.21873       35.87028
C        106.79575       -0.66346       35.70941
O        106.82276       -1.78636       36.19314
C        108.19047        0.60730       37.34398
H        107.87435        2.32917       35.47139
H        108.93295       -0.35816       35.57596
H        109.10810        1.22065       37.47194
H        107.31438        1.19424       37.69366
H        108.29239       -0.30096       37.97645
N        105.67549       -0.21537       35.06524
C        104.48315       -1.02706       34.85000
C        104.13545       -1.18549       33.37443
O        103.26592       -1.99475       33.07967
C        103.27067       -0.40137       35.56869
C        102.87561        0.97970       34.99380
C        101.60306        1.44266       35.60942
O        101.55407        2.56358       36.34784
O        100.59378        0.76581       35.48426
H        105.65602        0.75284       34.73466
H        104.64767       -2.04514       35.26523
H        103.48158       -0.30555       36.65707
H        102.41237       -1.10037       35.45266
H        102.70297        0.91886       33.90046
H        103.67606        1.71625       35.19566
N        104.68563       -0.39367       32.40718
C        104.27586       -0.43374       31.01937
H        103.83111        0.54845       30.74819
H        105.16128       -0.61755       30.37877
H        103.51863       -1.22034       30.82052
H        105.38594        0.31787       32.64639
Ca        99.73071        2.44006       37.60599
O        101.09394        3.57806       39.99197
H        100.72403        2.97096       40.68059
H        100.88708        4.48666       40.32444
O        101.98823        5.29633       37.46830
H        102.60302        4.61049       37.83151
H        102.55367        6.10139       37.36089

Ca 1.0



