%chk=holoCaM-CaMKII.loop1.water1.frame469.chk
%nprocshared=20
%mem=10GB
%nosave
#b3lyp/svp scf=(tight,noincore,xqc) Test 
#IOP(5/87=12) Density=Current Pop=(MK,readradii) iop(6/33=2) iop(6/42=6)

holoCaM-CaMKII.loop1.water1.frame469 

   0  1 
C         67.21086       63.01985       67.15887
C         67.19659       64.22778       68.04794
O         66.20604       64.93797       68.05097
H         67.10624       63.33847       66.10042
H         68.15792       62.44963       67.26275
H         66.36456       62.35337       67.42595
N         68.26456       64.51477       68.84125
C         68.33931       65.66384       69.73794
C         68.84089       66.88956       68.97080
O         69.96244       67.32841       69.18285
C         69.23987       65.27843       70.93181
C         69.31189       66.35330       71.97053
O         68.30088       66.73742       72.53583
O         70.50533       66.87551       72.30090
H         69.06242       63.86014       68.82895
H         67.33717       65.87885       70.17432
H         70.26529       65.04351       70.57130
H         68.82624       64.36782       71.41819
N         68.04402       67.47859       68.03577
C         68.44199       68.59992       67.18842
C         68.80324       69.83828       68.00717
O         69.91311       70.33214       67.86422
C         67.34940       68.84852       66.10484
C         65.99935       69.38583       66.62345
C         64.82606       69.17976       65.65303
C         65.02765       69.79003       64.26226
N         63.83213       69.58688       63.44178
H         67.10988       67.08361       67.89056
H         69.34479       68.28364       66.61827
H         67.17752       67.86572       65.61157
H         67.73078       69.54749       65.32941
H         66.10763       70.46258       66.87703
H         65.70028       68.83971       67.53405
H         63.92007       69.62535       66.12064
H         64.64792       68.08762       65.53731
H         65.89356       69.30008       63.76553
H         65.23476       70.87842       64.35078
H         63.60885       68.56687       63.37032
H         63.01893       70.09199       63.86384
H         64.00288       69.96233       62.48154
N         67.92382       70.38205       68.89831
C         68.19788       71.58541       69.69120
C         69.35460       71.45079       70.67970
O         69.73446       72.46234       71.25437
C         66.92124       72.04647       70.43685
C         66.30600       71.00474       71.34137
O         66.83664       69.77123       71.45082
O         65.26786       71.26113       71.92895
H         67.00347       69.93614       68.99201
H         68.47401       72.39628       68.98085
H         66.15631       72.30891       69.67442
H         67.13998       72.96389       71.02572
N         69.97136       70.26417       70.93149
C         71.11519       70.13807       71.81641
C         70.78661       70.50297       73.24243
O         71.46297       71.35772       73.79714
H         69.64059       69.40953       70.47072
H         71.95207       70.76556       71.43761
H         71.46614       69.08794       71.80560
N         69.77435       69.87399       73.90698
C         69.47650       70.11668       75.31921
C         69.64966       68.85849       76.17567
O         69.58568       68.98119       77.39085
C         68.08722       70.77901       75.48601
C         66.91030       69.96137       75.03325
O         65.78450       70.42446       75.11764
O         67.07376       68.72859       74.53703
H         69.20655       69.19361       73.38281
H         70.20760       70.84800       75.72619
H         68.08429       71.72610       74.90379
H         67.93350       71.03244       76.55684
N         69.88143       67.62594       75.62858
C         70.15416       66.42276       76.40181
C         69.01299       65.42386       76.37555
O         69.19125       64.33759       76.90796
H         69.87667       67.50839       74.61153
H         70.34863       66.66036       77.46994
H         71.07859       65.95880       75.99480
N         67.78305       65.75594       75.88558
C         66.59359       64.92799       76.04549
C         65.79521       64.82327       74.75033
O         65.32042       65.83019       74.24499
C         65.71305       65.53337       77.17091
C         66.35950       65.32816       78.54461
O         65.51914       66.91407       76.97693
H         67.64250       66.69611       75.51102
H         66.86922       63.89783       76.36202
H         64.73297       65.00388       77.21331
H         64.76843       67.02891       76.34151
H         66.48792       64.24251       78.74596
H         67.35051       65.82481       78.60379
H         65.70719       65.75316       79.33603
N         65.57952       63.60571       74.17569
C         64.71284       63.39938       73.01457
C         63.25179       63.56295       73.42874
O         62.88105       63.12829       74.51199
C         64.96030       61.99060       72.38509
C         66.42890       61.89707       71.88212
C         63.97851       61.71692       71.22363
C         66.81677       60.51550       71.35267
H         66.03069       62.78159       74.60107
H         64.96816       64.13752       72.22061
H         64.78919       61.21772       73.16730
H         67.12521       62.11935       72.71677
H         66.60527       62.65286       71.08437
H         62.93260       61.72922       71.58471
H         64.09616       62.47448       70.41861
H         64.12169       60.70676       70.79515
H         67.88929       60.52175       71.06627
H         66.66240       59.74749       72.13980
H         66.23724       60.24302       70.44862
N         62.35230       64.10653       72.56074
C         60.91980       64.24355       72.81461
C         60.12407       63.42467       71.81095
O         60.70735       62.82838       70.91783
C         60.51211       65.73562       72.70322
C         61.14003       66.56237       73.82848
O         60.90608       66.23184       71.44733
H         62.69533       64.40503       71.63864
H         60.65643       63.86400       73.82708
H         59.40752       65.82632       72.79940
H         60.67588       67.19639       71.41204
H         60.80768       67.61914       73.74274
H         60.80299       66.17733       74.81362
H         62.24761       66.52449       73.77599
N         58.76992       63.34718       71.90151
C         57.93274       62.66883       70.91462
C         58.01596       63.37863       69.56971
O         58.23716       62.71658       68.56730
C         56.45899       62.58358       71.38476
C         56.32612       61.67260       72.61466
O         55.95774       63.86412       71.67178
H         58.31290       63.80805       72.70467
H         58.27538       61.61599       70.78191
H         55.86509       62.12511       70.55903
H         54.97397       63.77298       71.76916
H         56.69645       60.65230       72.37429
H         56.90279       62.06818       73.47587
H         55.25953       61.58820       72.91127
N         57.86485       64.73451       69.48565
C         57.89662       65.48123       68.22700
C         59.16406       65.18356       67.44456
O         59.07058       64.79469       66.28790
C         57.75634       66.99992       68.50625
C         57.61631       67.80957       67.20302
C         57.31945       69.30326       67.41942
C         58.46977       70.07685       68.08150
N         58.15677       71.50584       68.14953
H         57.73025       65.26043       70.36195
H         57.02019       65.16936       67.61602
H         58.62545       67.35879       69.09916
H         56.83440       67.15815       69.10778
H         56.75895       67.39013       66.63289
H         58.53095       67.70391       66.58059
H         56.39102       69.41879       68.02089
H         57.13768       69.75030       66.41772
H         59.39843       69.93965       67.48442
H         58.64969       69.69347       69.10880
H         58.95344       72.01397       68.59694
H         58.01528       71.88927       67.18612
H         57.29246       71.66144       68.71770
N         60.38228       65.30059       68.03591
C         61.64352       64.98232       67.37048
C         61.62626       63.55890       66.83555
O         61.83347       63.37263       65.64448
C         62.82025       65.17236       68.35030
C         63.02679       66.65569       68.70684
C         64.10599       66.82887       69.73320
O         65.10321       67.47988       69.47938
O         63.96196       66.29948       70.95828
H         60.40018       65.59283       69.02337
H         61.79802       65.66838       66.50706
H         63.75028       64.79956       67.87667
H         62.63421       64.56900       69.26541
H         62.09995       67.10071       69.12058
H         63.29366       67.21101       67.78066
N         61.35735       62.50720       67.65200
C         61.30073       61.14376       67.17321
H         60.53128       61.05235       66.37685
H         62.29062       60.83996       66.77334
H         61.02631       60.46227       68.00700
H         61.16308       62.68189       68.64112
Ca        65.61338       68.11806       72.36916
O         63.09659       69.13858       73.56700
H         63.03223       70.12076       73.66779
H         62.79708       68.96250       72.63930

Ca 1.0



