%chk=holoCaM-CaMKII.loop1.water2.frame10.chk
%nprocshared=20
%mem=10GB
%nosave
#b3lyp/svp scf=(tight,noincore,xqc) Test 
#IOP(5/87=12) Density=Current Pop=(MK,readradii) iop(6/33=2) iop(6/42=6)

holoCaM-CaMKII.loop1.water2.frame10 

   0  1 
C         63.79613       71.12501        4.18646
C         64.48897       71.04186        2.86111
O         63.82341       70.91331        1.84486
H         62.69639       71.03144        4.06423
H         64.15842       70.31353        4.85136
H         64.02113       72.10770        4.65317
N         65.84496       71.13549        2.80596
C         66.60664       71.16646        1.56561
C         66.96059       69.75946        1.10594
O         68.12054       69.37259        1.16598
C         67.84563       72.06093        1.76622
C         68.63178       72.29783        0.50960
O         69.68254       73.12543        0.56044
O         68.32487       71.77993       -0.55216
H         66.35129       71.28841        3.69280
H         66.01879       71.67825        0.77879
H         68.51862       71.62377        2.53504
H         67.50155       73.05555        2.12371
N         65.99926       68.93965        0.59810
C         66.28268       67.58748        0.12964
C         67.07489       67.56578       -1.18419
O         67.34496       66.47371       -1.66562
C         64.97480       66.76949       -0.04269
C         64.01675       66.79515        1.17355
C         64.65867       66.51339        2.54299
C         65.29355       65.12304        2.66363
N         65.87306       64.94399        3.99584
H         65.03348       69.28447        0.55866
H         66.87518       67.06592        0.91228
H         65.25696       65.71359       -0.25034
H         64.40377       67.14085       -0.92212
H         63.19034       66.07484        0.98770
H         63.55017       67.79946        1.24246
H         63.86447       66.60708        3.31563
H         65.42158       67.29134        2.75897
H         66.09464       64.99934        1.90410
H         64.51867       64.34471        2.48866
H         66.61827       65.65984        4.16163
H         65.13178       65.03658        4.72824
H         66.29949       63.99219        4.06320
N         67.48924       68.70783       -1.81958
C         68.18937       68.71056       -3.10392
C         69.67703       69.02759       -2.95708
O         70.38762       68.95096       -3.94979
C         67.53596       69.75002       -4.03742
C         66.05372       69.55349       -4.17985
O         65.20932       70.52459       -3.78360
O         65.60693       68.52260       -4.65431
H         67.30195       69.62484       -1.39919
H         68.12333       67.70253       -3.56939
H         68.00797       69.71484       -5.04303
H         67.70725       70.76092       -3.60672
N         70.22387       69.38056       -1.75954
C         71.64029       69.63443       -1.54517
C         72.19030       70.76887       -2.38166
O         73.21801       70.59516       -3.01991
H         69.61990       69.46321       -0.93219
H         72.22479       68.70706       -1.72605
H         71.77544       69.91580       -0.47745
N         71.55957       71.97028       -2.40358
C         72.07000       73.16659       -3.07095
C         72.14032       74.34308       -2.07630
O         72.39489       75.46038       -2.50378
C         71.22337       73.47192       -4.34192
C         69.75269       73.43939       -4.07572
O         69.00709       72.68984       -4.68370
O         69.31131       74.14570       -3.04193
H         70.65761       72.04812       -1.90892
H         73.10619       73.02164       -3.44693
H         71.44588       72.71171       -5.12121
H         71.51734       74.46502       -4.74611
N         71.99396       74.15461       -0.72669
C         72.09806       75.20980        0.27586
C         70.95553       76.21490        0.30227
O         71.02714       77.11268        1.12964
H         71.89085       73.19930       -0.36171
H         73.06296       75.74460        0.14028
H         72.11777       74.73798        1.28355
N         69.89081       76.15902       -0.55218
C         68.82938       77.16676       -0.58319
C         67.39469       76.56044       -0.49911
O         67.36429       75.28165        0.05207
C         68.94607       78.00163       -1.88322
C         70.24806       78.81621       -1.93526
O         68.82650       77.18464       -3.02354
H         69.85853       75.40868       -1.23813
H         68.95146       77.86138        0.27699
H         68.11671       78.74028       -1.91237
H         69.69563       76.72918       -3.17778
H         71.13839       78.15236       -1.91358
H         70.27772       79.41280       -2.87161
H         70.29677       79.51033       -1.07038
N         66.51643       77.44846        0.26742
C         65.12947       76.97983        0.47792
C         64.15524       77.81415       -0.34727
O         64.17671       79.03479       -0.26258
C         64.83291       77.00738        2.00794
C         65.70009       75.91688        2.70651
C         63.33709       76.77109        2.30456
C         65.66597       75.95274        4.23332
H         66.57925       78.44519       -0.04341
H         65.00331       75.92007        0.17021
H         65.10404       78.01340        2.39737
H         66.76522       76.04484        2.42416
H         65.37407       74.90789        2.36290
H         62.71640       77.56161        1.83499
H         63.00769       75.78144        1.92421
H         63.12978       76.82745        3.39138
H         66.05520       76.92708        4.59549
H         64.64735       75.78356        4.63292
H         66.31858       75.14384        4.62785
N         63.21949       77.19092       -1.11881
C         62.19917       77.88230       -1.90030
C         60.86200       77.76223       -1.19619
O         60.79884       77.12955       -0.15766
C         62.11957       77.27865       -3.33166
C         63.41928       77.47696       -4.12128
O         61.75567       75.91662       -3.28812
H         63.16783       76.16468       -1.07939
H         62.42805       78.96832       -1.96978
H         61.33035       77.80539       -3.90780
H         62.57025       75.36959       -3.13599
H         63.31425       77.03238       -5.13466
H         63.64146       78.55884       -4.22797
H         64.26503       76.98427       -3.60303
N         59.74719       78.36659       -1.68464
C         58.42187       78.22106       -1.07615
C         57.94490       76.77762       -1.14380
O         57.40518       76.27708       -0.16884
C         57.38592       79.14296       -1.76335
C         57.68820       80.61725       -1.48243
O         57.35995       78.93059       -3.15375
H         59.84568       78.94292       -2.53509
H         58.45468       78.52655       -0.00544
H         56.37848       78.95177       -1.31994
H         56.61987       78.29779       -3.34461
H         58.68294       80.90917       -1.87777
H         56.91404       81.25780       -1.95411
H         57.67141       80.80364       -0.38628
N         58.14237       76.05074       -2.27648
C         57.72206       74.65964       -2.46443
C         58.28995       73.79413       -1.35236
O         57.52896       73.11054       -0.68070
C         58.18929       74.17228       -3.86115
C         57.50137       74.97785       -4.98857
C         58.19304       74.80669       -6.34606
C         57.60018       75.79459       -7.36715
N         58.33614       75.76532       -8.62943
H         58.66505       76.51521       -3.03167
H         56.61168       74.58848       -2.42952
H         57.97128       73.09126       -4.00837
H         59.29174       74.31068       -3.91620
H         57.55210       76.05897       -4.76346
H         56.42408       74.70772       -5.04843
H         58.10521       73.75915       -6.70724
H         59.27057       75.05304       -6.22099
H         57.66224       76.82769       -6.95444
H         56.52837       75.55795       -7.54737
H         59.34098       76.00529       -8.46239
H         58.26323       74.82087       -9.07011
H         57.92886       76.48012       -9.27551
N         59.61780       73.83184       -1.06214
C         60.23092       73.10491        0.04851
C         59.60005       73.51193        1.37566
O         59.12445       72.64611        2.09648
C         61.75979       73.34620        0.05469
C         62.40645       72.70160       -1.18933
C         63.89044       72.90008       -1.25182
O         64.36304       74.01853       -1.34991
O         64.70795       71.83294       -1.26505
H         60.21105       74.44458       -1.64136
H         60.06895       72.01127       -0.08133
H         62.20589       72.88102        0.96001
H         61.96863       74.43763        0.08967
H         61.97238       73.11589       -2.12158
H         62.19831       71.61002       -1.16649
N         59.53014       74.81639        1.74636
C         58.91599       75.26229        2.97737
H         57.85460       74.93745        3.01489
H         59.46862       74.85391        3.84827
H         58.94242       76.37335        3.02848
H         59.90208       75.52481        1.11810
Ca        67.44675       74.07910       -1.85072
O         64.91497       73.36338       -4.84632
H         65.45582       72.96472       -5.57397
H         64.06595       72.85469       -4.85677
O         66.55376       75.66585       -4.34036
H         66.20973       76.19942       -5.09980
H         66.50243       76.27613       -3.56296

Ca 1.0



