%chk=holoCaM-CaMKII.loop1.water2.frame208.chk
%nprocshared=20
%mem=10GB
%nosave
#b3lyp/svp scf=(tight,noincore,xqc) Test 
#IOP(5/87=12) Density=Current Pop=(MK,readradii) iop(6/33=2) iop(6/42=6)

holoCaM-CaMKII.loop1.water2.frame208 

   0  1 
C         28.58846       69.58152       31.19970
C         27.88356       69.83990       32.49644
O         27.95265       70.94947       32.99065
H         29.33394       68.77113       31.34032
H         27.85048       69.27271       30.42976
H         29.11334       70.49526       30.84800
N         27.16335       68.84440       33.08169
C         26.42106       68.94207       34.34263
C         27.38392       69.07275       35.53562
O         27.63565       68.08554       36.21349
C         25.52899       67.67462       34.43994
C         24.59789       67.64779       35.61028
O         24.58305       68.64416       36.50704
O         23.83086       66.71039       35.74054
H         27.11972       67.95203       32.56275
H         25.72454       69.81010       34.31036
H         26.16381       66.76239       34.46836
H         24.89365       67.62687       33.52749
N         28.00356       70.25890       35.81310
C         29.08356       70.39466       36.79318
C         28.66843       70.29502       38.25084
O         29.56237       70.18275       39.07933
C         29.87835       71.71967       36.56790
C         31.32719       71.47520       36.12576
C         31.42640       70.79347       34.74915
C         32.88157       70.57323       34.30364
N         33.60614       69.65885       35.19080
H         27.75972       71.07460       35.24314
H         29.76667       69.53244       36.63264
H         29.92775       72.30548       37.51307
H         29.37660       72.39368       35.84042
H         31.81802       70.86162       36.90945
H         31.84694       72.45657       36.07264
H         30.92462       71.44130       33.99776
H         30.90921       69.81164       34.74816
H         33.41462       71.54805       34.25181
H         32.86293       70.13680       33.28070
H         33.73729       70.08079       36.13705
H         33.09421       68.75034       35.27257
H         34.55367       69.47633       34.78909
N         27.37196       70.36224       38.65736
C         26.98112       70.26262       40.06449
C         26.12589       69.02527       40.32511
O         25.74942       68.80474       41.46765
C         26.35795       71.59074       40.53805
C         25.21753       72.05271       39.69355
O         24.21154       71.37598       39.60633
O         25.30265       73.22265       39.03087
H         26.63121       70.49714       37.95255
H         27.87079       70.11941       40.71545
H         27.14747       72.37319       40.49672
H         26.02645       71.50407       41.59547
N         25.87360       68.11634       39.33989
C         25.26656       66.81924       39.56981
C         23.83646       66.87685       40.03933
O         23.53001       66.30022       41.07271
H         26.21213       68.28797       38.38618
H         25.88944       66.24982       40.29353
H         25.27412       66.25465       38.61066
N         22.89080       67.49029       39.27964
C         21.45855       67.40671       39.53858
C         20.75199       66.70636       38.37282
O         19.53242       66.76112       38.29489
C         20.87544       68.80059       39.85829
C         21.10292       69.84449       38.80666
O         21.67618       71.01369       39.13576
O         20.72326       69.66902       37.66629
H         23.18988       67.98683       38.42921
H         21.24179       66.79182       40.43950
H         21.32382       69.16358       40.80904
H         19.78181       68.69784       40.02505
N         21.45536       65.94755       37.47854
C         20.85390       65.19421       36.38955
C         20.38974       66.02945       35.21265
O         19.93595       65.42596       34.24996
H         22.46548       65.81188       37.61698
H         20.02205       64.56854       36.77999
H         21.62608       64.50510       35.98224
N         20.46447       67.39284       35.18866
C         20.04890       68.19227       34.03715
C         21.14828       69.14748       33.58923
O         22.16311       69.28847       34.25905
C         18.73622       68.95508       34.34897
C         17.53806       68.00188       34.47982
O         18.87021       69.75193       35.49755
H         20.81585       67.89116       36.01359
H         19.84976       67.53245       33.16424
H         18.48906       69.62687       33.49968
H         18.73276       69.17286       36.29240
H         16.61573       68.58797       34.67862
H         17.39887       67.43796       33.53319
H         17.68811       67.27979       35.30983
N         21.00174       69.80862       32.40618
C         21.97198       70.73252       31.82845
C         21.27717       72.06150       31.57755
O         20.20799       72.07584       30.98113
C         22.55124       70.13621       30.50843
C         23.31756       68.82225       30.82502
C         23.48141       71.15300       29.80859
C         23.85544       68.09523       29.59068
H         20.15340       69.61795       31.84962
H         22.83574       70.89607       32.51217
H         21.70835       69.90924       29.81784
H         22.63298       68.11444       31.33830
H         24.16759       69.03875       31.50969
H         22.93085       72.08085       29.55396
H         24.34318       71.41462       30.45968
H         23.86030       70.75984       28.84488
H         24.34550       67.15049       29.90798
H         23.02450       67.84931       28.89659
H         24.61879       68.69749       29.05877
N         21.87654       73.22769       31.94527
C         21.31841       74.54871       31.69548
C         22.14369       75.24417       30.63500
O         23.12999       74.69023       30.16988
C         21.28314       75.39634       32.99612
C         20.43344       74.73658       34.09149
O         22.59108       75.68111       33.44120
H         22.81707       73.18533       32.34510
H         20.28168       74.46162       31.30240
H         20.79798       76.37174       32.78334
H         22.82725       75.07581       34.18831
H         19.39296       74.58303       33.73700
H         20.87430       73.75937       34.36642
H         20.41206       75.38383       34.99473
N         21.77667       76.46843       30.18256
C         22.52136       77.18493       29.15769
C         23.92560       77.51843       29.63502
O         24.87630       77.18649       28.94156
C         21.76798       78.46554       28.71595
C         20.43539       78.12109       28.04037
O         21.51760       79.31543       29.80749
H         20.92205       76.89384       30.57173
H         22.60586       76.54403       28.24993
H         22.37829       78.99180       27.94307
H         22.24724       79.98779       29.83249
H         20.61085       77.46976       27.15734
H         19.74890       77.59509       28.73605
H         19.93575       79.05060       27.69679
N         24.12860       78.20008       30.79783
C         25.44489       78.66692       31.22522
C         26.41623       77.51108       31.45730
O         27.58638       77.65847       31.13328
C         25.30209       79.59462       32.45126
C         26.53548       80.48867       32.67957
C         26.37556       81.43560       33.88884
C         25.18439       82.42013       33.82967
N         25.29553       83.38388       32.73284
H         23.30678       78.44391       31.37091
H         25.83475       79.29971       30.39603
H         25.05383       78.99941       33.35718
H         24.45644       80.27979       32.23586
H         26.72967       81.09006       31.76478
H         27.42618       79.84968       32.85735
H         27.31166       82.02496       34.00244
H         26.25647       80.81027       34.79888
H         25.15672       82.98267       34.78897
H         24.22139       81.87263       33.75579
H         25.29266       82.90032       31.80736
H         24.47359       84.03056       32.76785
H         26.16780       83.95077       32.84035
N         25.98253       76.30178       31.92818
C         26.84198       75.11679       32.01429
C         27.39140       74.78568       30.63684
O         28.60431       74.73529       30.48588
C         26.06816       73.90827       32.60482
C         25.80036       74.11405       34.10902
C         24.97236       73.02599       34.73558
O         23.84429       72.80817       34.34045
O         25.40534       72.34944       35.80966
H         24.98817       76.20679       32.18344
H         27.70609       75.31961       32.68681
H         26.67307       72.98740       32.49443
H         25.12255       73.75990       32.03966
H         25.25778       75.06800       34.25988
H         26.77256       74.17806       34.64456
N         26.55688       74.59747       29.57735
C         27.01949       74.35479       28.22503
H         28.12635       74.29880       28.15690
H         26.59274       73.40164       27.85137
H         26.67587       75.18313       27.56898
H         25.54243       74.66419       29.72309
Ca        23.74157       71.17492       36.78574
O         20.42726       72.14922       36.32126
H         19.85530       72.05216       35.51992
H         19.91398       72.75016       36.91674
O         22.25351       74.17748       37.53904
H         23.02744       73.77045       38.00020
H         21.59612       74.33882       38.26146

Ca 1.0



