%chk=holoCaM.loop2.water2.frame208.chk
%nprocshared=20
%mem=10GB
%nosave
#b3lyp/svp scf=(tight,noincore,xqc) Test 
#IOP(5/87=12) Density=Current Pop=(MK,readradii) iop(6/33=2) iop(6/42=6)

holoCaM.loop2.water2.frame208 

   -2  1 
C          6.69762       54.39512       89.78725
C          6.96877       53.22112       90.68348
O          8.11628       52.96710       91.01047
H          6.02506       55.10892       90.31200
H          7.63803       54.92911       89.53272
H          6.20479       54.05533       88.85387
N          5.93073       52.48870       91.16598
C          6.08618       51.43195       92.15998
C          6.70713       50.16319       91.57054
O          6.19077       49.65115       90.58744
C          4.70557       51.10384       92.76660
C          4.79133       50.29257       94.02729
O          3.66135       49.90155       94.64295
O          5.86918       50.04281       94.53814
H          4.97814       52.77557       90.88984
H          6.70697       51.84193       92.98839
H          4.08193       50.57917       92.01201
H          4.19241       52.04829       93.04918
N          7.78942       49.57855       92.16173
C          8.44481       48.35944       91.69415
C          8.43124       47.24907       92.75208
O          9.15338       46.27644       92.57700
C          9.89056       48.70921       91.31936
H          8.18014       50.01743       93.00064
H          7.96265       47.95857       90.77598
H          9.89645       49.48423       90.52371
H         10.44719       49.09197       92.20131
H         10.41756       47.81360       90.92330
N          7.60262       47.28281       93.83968
C          7.58411       46.23583       94.86066
C          6.27417       46.21474       95.65950
O          5.67068       45.15174       95.71898
C          8.86042       46.25317       95.74982
C          9.17859       47.51885       96.50086
O          8.50753       48.52344       96.37226
O         10.25827       47.55228       97.30476
H          6.92111       48.04174       93.91194
H          7.60561       45.24777       94.34577
H          9.74452       46.04237       95.11202
H          8.77743       45.42539       96.48696
N          5.75463       47.31842       96.27588
C          4.51487       47.30503       97.04736
C          4.71953       47.70512       98.49925
O          3.74713       47.69916       99.24053
H          6.22938       48.22026       96.18450
H          4.05460       46.29341       97.04737
H          3.78966       48.00123       96.57716
N          5.95133       48.02299       98.99225
C          6.22063       48.26817      100.40871
C          5.51639       49.48185      101.02342
O          5.52599       49.57670      102.24292
C          7.74907       48.34256      100.64247
C          8.46232       49.42559       99.86125
N          9.80524       49.53434       99.94891
O          7.84682       50.18565       99.12975
H          6.75582       47.99715       98.35352
H          5.84889       47.37597      100.95997
H          8.18877       47.37224      100.32312
H          7.95967       48.47435      101.72459
H         10.34897       48.89672      100.54628
H         10.30584       50.24738       99.40645
N          4.91295       50.45056      100.27683
C          4.18592       51.58127      100.84972
C          4.88043       52.92127      100.65465
O          4.29364       53.92975      101.01997
H          4.96750       50.39399       99.25681
H          4.03646       51.45604      101.94442
H          3.17791       51.60876      100.38387
N          6.15130       53.00826      100.16956
C          6.92288       54.24677      100.08086
C          7.54598       54.42883       98.70556
O          8.10078       53.48375       98.16539
C          8.08234       54.22533      101.12685
C          7.57407       54.50061      102.53820
O          8.76832       52.99743      101.15908
H          6.64089       52.14076       99.92631
H          6.30545       55.14642      100.30177
H          8.79850       55.04947      100.89996
H          8.98472       52.73347      100.23596
H          7.08067       55.49477      102.58134
H          6.86196       53.71497      102.86270
H          8.43818       54.51561      103.23833
N          7.64397       55.67581       98.15729
C          8.55000       55.95972       97.04483
C          9.97389       55.72207       97.52658
O         10.35331       56.26713       98.55503
C          8.35105       57.40173       96.47950
C          6.95723       57.46684       95.79038
C          9.47558       57.75646       95.47999
C          6.65030       58.77771       95.06442
H          7.17256       56.46689       98.62337
H          8.33955       55.27275       96.20461
H          8.40612       58.14696       97.30471
H          6.16844       57.29926       96.55452
H          6.87897       56.65565       95.03274
H         10.46846       57.72809       95.97512
H          9.47903       57.05523       94.62069
H          9.36815       58.79513       95.10849
H          6.71586       59.63995       95.75793
H          7.34123       58.92805       94.20837
H          5.62512       58.72646       94.64004
N         10.82287       54.93301       96.80612
C         12.17886       54.60611       97.22999
C         13.19408       55.36379       96.40697
O         12.81029       56.17242       95.57503
C         12.42510       53.08486       97.13049
C         11.30839       52.30424       97.73963
O         10.72176       51.34624       97.00251
O         10.91671       52.55600       98.86388
H         10.50383       54.55671       95.90552
H         12.32801       54.90791       98.29004
H         13.37034       52.82219       97.64671
H         12.51177       52.77961       96.06273
N         14.52357       55.17772       96.61602
C         15.55785       55.94060       95.93675
C         15.51005       55.79352       94.40750
O         15.39750       56.82122       93.75737
C         16.94497       55.56616       96.49612
C         18.00038       56.52127       96.01499
C         18.01838       57.84023       96.50017
C         18.97085       56.11168       95.08877
C         18.99801       58.73540       96.06783
C         19.94202       57.01529       94.64789
C         19.95776       58.32454       95.13949
H         14.81420       54.49468       97.33275
H         15.38292       57.01112       96.19095
H         17.19312       54.52639       96.22186
H         16.94202       55.59956       97.60808
H         17.28104       58.16936       97.22302
H         18.96615       55.10104       94.69923
H         19.01160       59.74655       96.45365
H         20.68269       56.70008       93.92543
H         20.71335       59.02095       94.80200
N         15.58519       54.59121       93.74251
C         15.57009       54.48054       92.28488
C         14.24376       54.92350       91.68805
O         14.25314       55.50981       90.61372
C         15.87927       52.99752       92.03450
C         15.28637       52.31679       93.24586
C         15.67961       53.28126       94.36267
H         16.38498       55.06761       91.80493
H         15.56598       52.60230       91.04392
H         16.98222       52.86197       92.12175
H         14.18258       52.31898       93.12997
H         15.61017       51.26688       93.41034
H         14.98433       53.12828       95.21134
H         16.73346       53.09985       94.66038
N         13.06834       54.70955       92.33616
C         11.77027       55.12218       91.81078
C         11.70200       56.62973       91.63330
O         11.17856       57.08350       90.62621
C         10.63636       54.69920       92.75821
C         10.55315       53.17443       92.96653
C          9.45554       52.80792       93.92217
O          8.72979       53.65722       94.40846
O          9.33325       51.53908       94.32966
H         13.10259       54.25648       93.25932
H         11.57875       54.62298       90.83438
H          9.66734       55.04639       92.33424
H         10.78956       55.19735       93.73804
H         11.49656       52.80069       93.41266
H         10.40405       52.64904       92.00135
N         12.20789       57.46212       92.58636
C         12.13266       58.90636       92.52821
H         13.15801       59.32931       92.47795
H         11.55175       59.26467       91.65387
H         11.64019       59.27779       93.45202
H         12.69109       57.05696       93.39412
Ca         8.56284       51.27097       96.41162
O          5.93100       53.31255       95.19467
H          6.36116       54.14285       95.51485
H          4.99690       53.57724       95.00430
O          5.07762       51.34809       97.01595
H          4.10018       51.44664       97.13786
H          5.22714       50.36948       97.00440

Ca 1.0



