%chk=holoCaM.loop3.water3.frame432.chk
%nprocshared=20
%mem=10GB
%nosave
#b3lyp/svp scf=(tight,noincore,xqc) Test 
#IOP(5/87=12) Density=Current Pop=(MK,readradii) iop(6/33=2) iop(6/42=6)

holoCaM.loop3.water3.frame432 

   0  1 
C        100.64481       71.90502       50.13833
C        101.37979       70.59935       50.11786
O        100.90558       69.66205       49.49150
H         99.64227       71.76351       50.58977
H        101.19741       72.67025       50.72383
H        100.53389       72.27649       49.09764
N        102.57317       70.47384       50.75926
C        103.37160       69.26055       50.69434
C        102.65701       68.10330       51.38388
O        102.37877       68.18525       52.57193
C        104.75674       69.52995       51.29782
C        105.74888       68.46023       50.99675
O        105.43123       67.40409       50.23309
O        106.87739       68.58676       51.41422
H        102.95372       71.29523       51.25534
H        103.52604       69.03353       49.62116
H        104.67449       69.67441       52.39627
H        105.17176       70.45802       50.84616
N        102.28563       67.01081       50.66161
C        101.46949       65.91660       51.18618
C        102.18482       65.13604       52.28298
O        101.59773       64.96393       53.34174
C        101.00548       65.03587       50.00458
C         99.87241       64.04403       50.31093
C         99.28057       63.53137       48.98164
C         98.11028       62.56203       49.18357
N         97.49870       62.21815       47.89723
H        102.53043       66.99903       49.65874
H        100.53611       66.35905       51.60234
H        101.85397       64.48361       49.56694
H        100.60244       65.74625       49.24657
H         99.06038       64.56868       50.85973
H        100.25208       63.20944       50.93928
H        100.06902       63.03498       48.37445
H         98.90000       64.40904       48.41142
H         97.33824       63.03485       49.83023
H         98.47615       61.63915       49.68442
H         96.71885       61.53977       48.05384
H         97.10543       63.07779       47.44736
H         98.20519       61.78455       47.25955
N        103.46003       64.66742       52.11942
C        104.17301       63.89447       53.14450
C        105.33835       64.65177       53.78055
O        105.99227       64.08307       54.64491
C        104.63871       62.53791       52.56499
C        105.69975       62.61381       51.49595
O        106.16016       61.47387       50.94827
O        106.16599       63.68081       51.13396
H        103.94596       64.88193       51.23849
H        103.48287       63.65570       53.98251
H        103.75559       62.00679       52.15119
H        105.05141       61.91936       53.39181
N        105.63606       65.93991       53.45109
C        106.69870       66.69435       54.09601
C        108.07625       66.16101       53.77120
O        108.81063       65.83422       54.69299
H        105.05935       66.43466       52.75841
H        106.52864       66.71064       55.19575
H        106.65982       67.74658       53.75038
N        108.50545       66.09057       52.47547
C        109.85949       65.68351       52.08815
C        110.62967       66.79445       51.35895
O        111.82833       66.64128       51.17129
C        109.80873       64.40167       51.23213
C        109.23638       64.62651       49.84752
N        109.96432       64.32707       48.74806
O        108.10833       65.07197       49.71131
H        107.83342       66.34354       51.74197
H        110.43459       65.44418       53.00982
H        109.20268       63.63565       51.76335
H        110.84063       64.00008       51.13495
H        110.91595       63.94166       48.82857
H        109.57039       64.47447       47.80788
N        110.00722       67.92386       50.90734
C        110.65791       69.04732       50.25400
C        110.16630       69.29816       48.83142
O        110.62032       70.26978       48.24492
H        109.00681       68.01922       51.03502
H        111.75944       68.90923       50.21965
H        110.44887       69.95308       50.86331
N        109.30988       68.44976       48.18361
C        108.98227       68.56275       46.75719
C        107.49649       68.39702       46.49021
O        106.91469       67.44331       46.98911
C        109.71731       67.42942       46.02141
C        111.20891       67.63103       46.08569
C        112.00714       66.80925       46.89450
C        111.81292       68.65409       45.33569
C        113.38790       67.00888       46.95764
C        113.19612       68.84353       45.38799
C        113.98856       68.02123       46.20216
O        115.32385       68.19318       46.26538
H        108.98083       67.60529       48.67402
H        109.32552       69.52669       46.32111
H        109.41841       67.37694       44.95075
H        109.42799       66.46574       46.49256
H        111.56143       66.02573       47.48794
H        111.21348       69.29616       44.70143
H        113.99058       66.37409       47.59432
H        113.64941       69.62865       44.79607
H        115.77876       68.87545       45.75152
N        106.84644       69.22512       45.61174
C        105.46780       68.99675       45.17704
C        105.41783       68.66921       43.68300
O        105.69283       69.52204       42.85246
C        104.50937       70.15992       45.58363
C        104.94857       71.54655       45.03738
C        104.36471       70.17108       47.11440
C        103.98343       72.68177       45.38604
H        107.36916       70.00185       45.18092
H        105.07007       68.10545       45.68941
H        103.50218       69.92148       45.17071
H        104.99670       71.51313       43.93257
H        105.95331       71.81522       45.42537
H        105.32963       70.41220       47.60772
H        103.59159       70.89223       47.44740
H        104.02586       69.16982       47.45116
H        102.96359       72.45409       45.00991
H        103.94649       72.86037       46.47954
H        104.33665       73.62128       44.91068
N        105.07531       67.41026       43.27798
C        104.89726       67.00734       41.88438
C        103.64502       67.64453       41.29683
O        102.95894       68.36899       41.99679
C        104.77132       65.46719       41.80663
O        103.62973       65.01607       42.49143
H        104.93888       66.69343       43.99759
H        105.79514       67.29898       41.29758
H        105.69640       64.99859       42.21799
H        104.70135       65.12318       40.75425
H        103.93359       64.57129       43.32509
N        103.25737       67.37717       40.01886
C        101.98488       67.83267       39.46268
C        100.81733       67.23768       40.23661
O         99.89893       67.96833       40.57998
C        101.87210       67.42911       37.98971
H        103.87040       66.79185       39.43134
H        101.93083       68.94435       39.49317
H        101.91613       66.32601       37.87061
H        100.91192       67.79969       37.56866
H        102.70165       67.88958       37.41167
N        100.81403       65.91439       40.57468
C         99.73664       65.25897       41.31512
C         99.41359       65.99128       42.60221
O         98.26388       66.35122       42.81291
C        100.13092       63.80907       41.64351
H        101.63645       65.34925       40.31071
H         98.82308       65.23190       40.68161
H        101.04360       63.77838       42.27848
H         99.30904       63.29802       42.18944
H        100.33764       63.24420       40.71051
N        100.39463       66.25152       43.50429
C        100.17211       66.93732       44.77341
C         99.59933       68.32420       44.52292
O         98.51490       68.60872       45.01193
C        101.49129       66.96815       45.57937
C        101.91274       65.52471       45.95433
C        103.23810       65.47972       46.63835
O        104.23183       65.91260       46.09152
O        103.35574       64.94066       47.85384
H        101.34908       65.95333       43.25946
H         99.43266       66.36646       45.37977
H        101.35833       67.55861       46.51334
H        102.28307       67.45935       44.96915
H        101.99910       64.88442       45.05650
H        101.13966       65.08366       46.62137
N        100.24548       69.21361       43.72147
C         99.71339       70.51185       43.35676
H         98.72873       70.71592       43.82669
H        100.42658       71.30552       43.66008
H         99.58310       70.55345       42.25339
H        101.14593       68.94719       43.31694
Ca       105.14705       65.56784       49.00827
O        107.22861       62.52731       48.15912
H        107.39334       61.70834       47.62879
H        107.74893       62.39169       48.98907
O        107.23484       64.67623       46.03067
H        107.15723       65.14903       45.16429
H        107.88636       63.95072       45.86007
O        104.40064       62.34337       47.84144
H        103.58141       62.11883       48.34967
H        104.20706       62.06152       46.91236

Ca 1.0



