%chk=holoCaM.loop1.water2.frame122.chk
%nprocshared=20
%mem=10GB
%nosave
#b3lyp/svp scf=(tight,noincore,xqc) Test 
#IOP(5/87=12) Density=Current Pop=(MK,readradii) iop(6/33=2) iop(6/42=6)

holoCaM.loop1.water2.frame122 

   0  1 
C        117.27630       91.94253       -0.02315
C        118.31378       93.00442       -0.22241
O        118.84749       93.10790       -1.31796
H        116.43954       92.11443       -0.73353
H        117.72301       90.94635       -0.21548
H        116.86786       91.96239        1.00912
N        118.62287       93.86742        0.78401
C        119.54562       94.97456        0.59107
C        120.97976       94.45667        0.43334
O        121.52373       93.90704        1.38063
C        119.35246       95.99201        1.73679
C        120.04250       97.28054        1.45128
O        120.73980       97.79438        2.29748
O        119.91223       97.87347        0.25419
H        118.11794       93.78217        1.68079
H        119.22288       95.49730       -0.33741
H        119.66999       95.57220        2.72014
H        118.26956       96.22895        1.80151
N        121.61636       94.53449       -0.77559
C        122.92884       93.94420       -1.05749
C        124.05988       94.58541       -0.26106
O        124.81213       93.86746        0.38154
C        123.24750       93.94897       -2.58520
C        123.57787       95.31756       -3.20813
C        123.82422       95.23181       -4.71752
C        124.16713       96.61989       -5.28352
N        124.46357       96.54729       -6.71300
H        121.09639       94.94504       -1.56073
H        122.87057       92.86450       -0.79241
H        122.38200       93.49701       -3.11941
H        124.12849       93.29333       -2.75772
H        124.49829       95.72524       -2.74473
H        122.75326       96.01440       -3.03239
H        122.91821       94.83909       -5.22894
H        124.67119       94.53826       -4.90697
H        125.05512       97.02878       -4.75118
H        123.31331       97.31514       -5.11836
H        123.63166       96.19112       -7.23669
H        124.70206       97.50395       -7.06172
H        125.28223       95.91665       -6.87528
N        124.23674       95.93689       -0.26961
C        125.35718       96.62754        0.38132
C        124.99508       97.14937        1.76254
O        125.87676       97.66791        2.43402
C        125.90437       97.77203       -0.52722
C        124.87992       98.85108       -0.81019
O        125.13534       99.78074       -1.55807
O        123.65668       98.71511       -0.27244
H        123.51679       96.48706       -0.75327
H        126.18317       95.90158        0.54504
H        126.22733       97.32897       -1.49395
H        126.79262       98.23859       -0.04852
N        123.73853       97.02772        2.27270
C        123.39696       97.44254        3.61911
C        123.58529       98.92648        3.84624
O        124.27036       99.27190        4.79772
H        122.99349       96.59107        1.71110
H        124.00050       96.86045        4.34786
H        122.34435       97.17981        3.83326
N        122.97103       99.86137        3.05715
C        123.00562      101.29348        3.35790
C        121.63854      101.80041        3.81330
O        121.56667      102.93439        4.26773
C        123.58928      102.11443        2.18718
C        122.76717      102.07454        0.92932
O        121.50218      102.53213        0.92831
O        123.26267      101.67865       -0.11265
H        122.41775       99.54744        2.24914
H        123.67973      101.46808        4.22367
H        124.61514      101.74383        1.96867
H        123.67356      103.17759        2.49939
N        120.52471      101.00957        3.77240
C        119.24420      101.36979        4.35154
C        118.10907      101.38835        3.34879
O        116.97116      101.39907        3.79161
H        120.57409      100.06868        3.36530
H        119.26975      102.34332        4.88682
H        119.01597      100.58673        5.10759
N        118.32253      101.45609        1.99854
C        117.22670      101.49549        1.02393
C        117.47124      100.52750       -0.12673
O        118.53234       99.94402       -0.21550
C        117.03015      102.93124        0.47430
C        116.59903      103.92192        1.56388
O        118.17753      103.39017       -0.19579
H        119.28549      101.54311        1.65108
H        116.27629      101.18777        1.51264
H        116.19794      102.91748       -0.26119
H        118.87443      103.58091        0.48424
H        115.65801      103.57539        2.04272
H        117.38224      104.02728        2.34315
H        116.41396      104.91763        1.10846
N        116.49488      100.32549       -1.05758
C        116.60160       99.43493       -2.21186
C        116.42570      100.25817       -3.49101
O        115.53054      101.08387       -3.57623
C        115.56596       98.27602       -2.05119
C        116.09395       97.29698       -0.95820
C        115.31760       97.52158       -3.37230
C        115.14006       96.15822       -0.59643
H        115.59979      100.81902       -0.93455
H        117.60374       98.95531       -2.27144
H        114.59046       98.71294       -1.74506
H        116.30159       97.85805       -0.02272
H        117.05349       96.84528       -1.30156
H        116.23909       97.03192       -3.72780
H        114.53305       96.74915       -3.25107
H        114.94312       98.21194       -4.15598
H        115.60958       95.52675        0.18882
H        114.18781       96.56891       -0.20278
H        114.93499       95.49980       -1.46415
N        117.25289      100.01718       -4.54958
C        117.25441      100.71680       -5.83045
C        116.72964       99.79701       -6.92827
O        116.32973       98.67994       -6.64164
C        118.71982      101.12488       -6.17899
C        119.31684      102.08395       -5.13574
O        119.50481       99.95877       -6.34711
H        117.92091       99.25425       -4.45964
H        116.60490      101.61735       -5.79251
H        118.73920      101.67678       -7.14139
H        120.33722      100.01412       -5.81056
H        120.34951      102.36797       -5.43689
H        118.70684      103.00793       -5.06797
H        119.36133      101.59549       -4.14293
N        116.72615      100.21369       -8.22764
C        116.40987       99.34523       -9.36296
C        117.43360       98.21872       -9.49657
O        117.02265       97.08892       -9.71605
C        116.31770      100.15224      -10.67908
C        115.10727      101.09993      -10.65146
O        117.50376      100.87248      -10.89597
H        116.99861      101.18751       -8.42163
H        115.40631       98.88351       -9.21654
H        116.15944       99.42865      -11.51275
H        117.46428      101.21743      -11.82589
H        115.18918      101.84240       -9.83097
H        115.02494      101.64236      -11.61631
H        114.17174      100.51530      -10.50899
N        118.77741       98.43462       -9.35883
C        119.76392       97.34355       -9.39011
C        119.59173       96.33248       -8.24414
O        120.26584       95.31234       -8.27759
C        121.21258       97.90130       -9.36458
C        121.74127       98.31770      -10.74970
C        120.95378       99.42456      -11.46427
C        121.55415       99.76457      -12.84446
N        121.45983       98.64860      -13.79243
H        119.10331       99.40160       -9.20670
H        119.62789       96.76354      -10.33017
H        121.91153       97.09382       -9.05344
H        121.30632       98.71256       -8.60872
H        121.74134       97.40159      -11.37395
H        122.79580       98.65199      -10.62960
H        120.97849      100.33895      -10.83307
H        119.89625       99.12161      -11.61021
H        122.61751      100.07241      -12.73197
H        120.99217      100.62808      -13.26289
H        122.04012       97.83680      -13.48582
H        120.46288       98.35236      -13.90377
H        121.82195       98.96007      -14.72237
N        118.71654       96.52745       -7.21846
C        118.47423       95.57502       -6.13380
C        117.02151       95.09051       -6.11533
O        116.70943       94.24623       -5.28601
C        118.76040       96.27587       -4.79359
C        120.23225       96.63256       -4.56984
C        120.36921       97.58367       -3.40531
O        120.94391       97.20232       -2.25796
O        119.96938       98.72869       -3.49954
H        118.19892       97.40584       -7.18576
H        119.11513       94.67238       -6.23992
H        118.43454       95.64874       -3.93329
H        118.15186       97.19011       -4.79978
H        120.67891       97.12121       -5.46139
H        120.77437       95.68287       -4.37678
N        116.07195       95.57230       -6.96647
C        114.69367       95.13585       -6.92712
H        114.10465       95.67840       -7.69897
H        114.63116       94.04727       -7.13396
H        114.25463       95.35800       -5.93153
H        116.30707       96.28602       -7.65663
Ca       121.51540       99.35245       -0.31545
O        120.65832      101.90569       -1.86746
H        119.68076      101.92423       -1.71946
H        120.85540      102.75384       -2.33823
O        122.55772      100.45170       -3.73076
H        123.22507       99.86649       -4.16871
H        122.83378      100.47409       -2.78055

Ca 1.0



