%chk=holoCaM-CaMKII.loop2.water2.frame146.chk
%nprocshared=20
%mem=10GB
%nosave
#b3lyp/svp scf=(tight,noincore,xqc) Test 
#IOP(5/87=12) Density=Current Pop=(MK,readradii) iop(6/33=2) iop(6/42=6)

holoCaM-CaMKII.loop2.water2.frame146 

   -2  1 
C         92.35330       15.84058       53.67027
C         91.11918       15.77771       52.81361
O         90.62619       14.69693       52.52976
H         93.16777       16.36080       53.12378
H         92.12659       16.41474       54.59598
H         92.69760       14.82687       53.96224
N         90.54760       16.93621       52.39790
C         89.29000       17.02376       51.66388
C         89.34684       16.43525       50.25816
O         90.19610       16.83807       49.47589
C         88.87962       18.50430       51.57414
C         87.57743       18.65199       50.86231
O         87.49447       19.36067       49.87268
O         86.50985       17.95788       51.28920
H         91.00609       17.81499       52.68911
H         88.50394       16.50010       52.25192
H         89.66253       19.09630       51.05117
H         88.76642       18.90933       52.60134
N         88.38727       15.54593       49.85209
C         88.27246       15.02707       48.48985
C         86.91811       15.33455       47.82295
O         86.77861       14.99475       46.65600
C         88.46999       13.50695       48.52791
H         87.69341       15.23244       50.54234
H         89.06783       15.46547       47.84940
H         89.45513       13.25855       48.97590
H         87.67252       13.02993       49.13974
H         88.43367       13.07790       47.50361
N         85.86267       15.89764       48.49157
C         84.51306       16.04079       47.91592
C         83.89048       17.43512       48.07285
O         82.79566       17.62777       47.56037
C         83.57678       14.97258       48.53498
C         83.75198       14.86631       50.02426
O         83.66273       15.95015       50.81380
O         84.11728       13.80764       50.50784
H         85.97862       16.12998       49.48505
H         84.53273       15.85139       46.81987
H         83.84527       13.98339       48.10123
H         82.51699       15.17022       48.26571
N         84.50284       18.45634       48.73275
C         83.94577       19.80309       48.83395
C         82.67610       19.94893       49.66897
O         82.17338       21.06219       49.73200
H         85.43377       18.30082       49.12187
H         83.74811       20.18001       47.80691
H         84.70833       20.46835       49.29428
N         82.09207       18.90863       50.33286
C         80.84439       19.02947       51.09613
C         80.95617       19.82348       52.41250
O         79.97009       19.87345       53.13501
C         80.21459       17.63030       51.32345
C         80.96640       16.67543       52.21217
N         80.45519       15.44415       52.43703
O         82.02292       16.99507       52.73135
H         82.50489       17.97662       50.23389
H         80.09873       19.54888       50.45412
H         80.08793       17.14311       50.33127
H         79.20168       17.76382       51.76117
H         79.56622       15.15507       52.00348
H         80.94258       14.77743       53.04667
N         82.08177       20.50894       52.77376
C         82.18634       21.32198       53.98085
C         82.35381       20.54220       55.27498
O         82.44326       21.18475       56.31227
H         82.87527       20.55026       52.13089
H         81.30494       21.99696       54.04474
H         83.08969       21.96376       53.89408
N         82.41992       19.18145       55.31059
C         82.57804       18.39939       56.53715
C         83.79832       17.48494       56.45230
O         84.47244       17.46498       55.43127
C         81.28911       17.56176       56.76587
C         80.08092       18.46384       57.02651
O         81.01528       16.74931       55.65246
H         82.33284       18.66048       54.43194
H         82.72332       19.05924       57.42125
H         81.38471       16.92725       57.67500
H         81.64658       15.98472       55.68683
H         79.88232       19.12790       56.15944
H         79.17917       17.84081       57.20688
H         80.25947       19.08861       57.92816
N         84.09437       16.64567       57.48725
C         85.11192       15.60159       57.43347
C         84.38346       14.28057       57.31061
O         83.51687       13.99437       58.12768
C         86.01781       15.59877       58.70636
C         86.82204       16.90807       58.90317
C         86.97216       14.38095       58.71592
C         87.82410       17.22497       57.79077
H         83.49327       16.66800       58.32544
H         85.76310       15.71683       56.53990
H         85.36073       15.49318       59.59862
H         87.38842       16.82920       59.85785
H         86.12009       17.76258       59.00087
H         87.62622       14.36384       57.81949
H         87.60505       14.38665       59.62822
H         86.39880       13.43233       58.73474
H         88.57159       16.41467       57.66560
H         87.29250       17.39039       56.83845
H         88.37534       18.15455       58.04359
N         84.73290       13.39830       56.33583
C         84.12011       12.08745       56.18692
C         85.05087       11.02776       56.73391
O         86.14389       11.35055       57.17914
C         83.79698       11.81963       54.70233
C         82.81072       12.80689       54.15426
O         81.73969       12.42052       53.71419
O         83.10827       14.11897       54.12820
H         85.52441       13.63082       55.71896
H         83.18394       12.02054       56.78413
H         83.37095       10.80028       54.58860
H         84.72944       11.87095       54.09761
N         84.64864        9.72973       56.78554
C         85.47932        8.65849       57.31549
C         86.73625        8.46898       56.47118
O         87.80312        8.46565       57.06587
C         84.63682        7.38384       57.53887
C         85.44053        6.26040       58.14308
C         86.34984        5.53496       57.35407
C         85.28042        5.91772       59.49671
C         87.08686        4.48741       57.90986
C         86.02586        4.87312       60.05092
C         86.92682        4.15745       59.25774
H         83.69503        9.50067       56.46435
H         85.80579        8.94630       58.34333
H         84.12256        7.01315       56.63470
H         83.83145        7.68069       58.24825
H         86.48017        5.77136       56.30583
H         84.58807        6.46388       60.12577
H         87.78011        3.93065       57.29323
H         85.90390        4.61794       61.09544
H         87.49941        3.34597       59.68654
N         86.73898        8.33966       55.10344
C         87.96056        8.21300       54.30863
C         88.92755        9.39559       54.40200
O         89.97667        9.33190       53.77585
C         87.44510        8.10295       52.86593
C         86.09315        7.45545       53.06260
C         85.56625        8.22969       54.26478
H         88.46375        7.27266       54.62585
H         87.23736        9.12345       52.46549
H         88.13478        7.58493       52.16553
H         85.42688        7.47416       52.17451
H         86.25998        6.39645       53.36857
H         85.23911        9.25062       53.97056
H         84.73285        7.66078       54.70588
N         88.63163       10.51374       55.12995
C         89.46838       11.70621       55.20494
C         89.99814       11.93406       56.61538
O         90.87464       12.77217       56.77204
C         88.62525       12.92313       54.75907
C         88.03876       12.68717       53.36028
C         87.02496       13.69391       52.92241
O         86.49135       13.52743       51.83991
O         86.62971       14.73068       53.68656
H         87.73572       10.56643       55.61522
H         90.35035       11.58811       54.53734
H         89.22835       13.85736       54.77192
H         87.79035       13.04168       55.48328
H         87.49501       11.72008       53.33987
H         88.86369       12.64297       52.61880
N         89.51699       11.23950       57.68889
C         90.01709       11.37861       59.03885
H         90.88327       12.06746       59.10216
H         89.20413       11.75473       59.69489
H         90.33449       10.37910       59.40623
H         88.74276       10.58179       57.57406
Ca        84.95446       15.83571       52.65846
O         84.77361       19.15890       52.99784
H         84.69597       19.34560       52.02862
H         85.20565       19.96826       53.36795
O         87.09063       17.71249       54.28867
H         87.42358       18.56042       54.67637
H         87.77572       17.04070       54.53189

Ca 1.0



