%chk=holoCaM.loop2.water2.frame94.chk
%nprocshared=20
%mem=10GB
%nosave
#b3lyp/svp scf=(tight,noincore,xqc) Test 
#IOP(5/87=12) Density=Current Pop=(MK,readradii) iop(6/33=2) iop(6/42=6)

holoCaM.loop2.water2.frame94 

   -2  1 
C         69.05268       46.39542       31.76405
C         68.84149       47.60874       30.91233
O         69.24776       47.60263       29.76027
H         68.06182       45.97076       32.03076
H         69.62917       45.62338       31.20992
H         69.60084       46.66298       32.69022
N         68.20908       48.70170       31.42201
C         67.86545       49.86392       30.61691
C         68.77011       51.03664       30.96380
O         68.85520       51.41251       32.12447
C         66.38017       50.21028       30.84363
C         65.85441       51.21431       29.86056
O         64.59149       51.66464       29.97947
O         66.53958       51.58458       28.92232
H         67.93695       48.69831       32.41769
H         67.99203       49.61676       29.53925
H         66.24876       50.59450       31.87861
H         65.75690       49.29820       30.72755
N         69.47753       51.65928       29.97778
C         70.42702       52.74464       30.19011
C         70.00297       54.04025       29.49080
O         70.80216       54.96683       29.47264
C         71.79328       52.27674       29.66766
H         69.35352       51.33434       29.00996
H         70.54680       52.97254       31.27161
H         71.74475       52.05496       28.57930
H         72.56928       53.05263       29.84069
H         72.10718       51.35419       30.20255
N         68.76090       54.20723       28.93671
C         68.36633       55.43488       28.22735
C         66.85310       55.62950       27.98005
O         66.51238       56.66008       27.41450
C         69.12262       55.51444       26.88014
C         68.79590       54.37106       25.96029
O         67.93253       53.40767       26.33010
O         69.34397       54.29601       24.87265
H         68.09993       53.43916       29.03760
H         68.66113       56.30484       28.85509
H         70.21745       55.50319       27.06121
H         68.88027       56.46827       26.36470
N         65.88628       54.75532       28.39140
C         64.45945       55.00822       28.24937
C         63.90441       55.01850       26.83369
O         62.71893       55.29726       26.71727
H         66.12990       53.91931       28.91919
H         64.23307       55.98545       28.72924
H         63.89894       54.22714       28.80820
N         64.64451       54.75082       25.71456
C         64.06671       54.87883       24.37115
C         62.92172       53.89617       24.07776
O         62.21791       54.11790       23.10257
C         65.14924       54.79964       23.26533
C         65.82464       53.45787       23.14391
N         66.74443       53.23904       22.17799
O         65.54027       52.55754       23.91129
H         65.64335       54.52491       25.81151
H         63.64270       55.90658       24.31554
H         65.92757       55.56981       23.45757
H         64.67202       55.02989       22.28857
H         67.00053       53.98332       21.51407
H         67.19263       52.31558       22.08789
N         62.68858       52.78992       24.84635
C         61.56795       51.87434       24.64825
C         61.97011       50.46320       24.23590
O         61.08767       49.61947       24.16758
H         63.32001       52.58785       25.62650
H         60.86544       52.25230       23.87437
H         61.00755       51.82388       25.60593
N         63.24562       50.14454       23.87149
C         63.65593       48.84100       23.34563
C         64.88856       48.29761       24.06879
O         65.43164       48.95372       24.94542
C         63.97542       48.99680       21.82732
C         62.71446       49.28620       21.01186
O         64.90469       50.02998       21.61302
H         63.95093       50.88325       23.87576
H         62.84541       48.08705       23.45702
H         64.37130       48.05077       21.39758
H         65.79318       49.68790       21.89276
H         62.23478       50.23372       21.33124
H         62.97699       49.36549       19.93476
H         61.98941       48.45145       21.12833
N         65.42403       47.10943       23.66333
C         66.71242       46.57870       24.09317
C         67.70281       46.84506       22.97541
O         67.40305       46.59577       21.81518
C         66.60487       45.06201       24.44815
C         65.88059       44.91136       25.81111
C         67.99868       44.39102       24.49261
C         65.63641       43.46197       26.23886
H         64.95302       46.59772       22.90240
H         67.09594       47.11258       24.99074
H         66.02753       44.54656       23.64841
H         64.89389       45.41869       25.76038
H         66.48478       45.40801       26.60307
H         68.64804       44.86385       25.25873
H         67.92164       43.30451       24.69137
H         68.49863       44.46263       23.50372
H         65.10700       43.45308       27.21481
H         65.01182       42.93830       25.48612
H         66.58621       42.90836       26.38327
N         68.93781       47.32551       23.28801
C         69.95937       47.67729       22.31306
C         71.07870       46.66419       22.37746
O         70.99719       45.73413       23.16692
C         70.53186       49.06878       22.64764
C         69.48377       50.11291       22.86608
O         68.57668       49.91986       23.83907
O         69.52834       51.17583       22.26885
H         69.18412       47.43018       24.28267
H         69.53433       47.67864       21.28532
H         71.24797       49.40066       21.86591
H         71.08714       48.99605       23.60917
N         72.15952       46.76388       21.55964
C         73.23562       45.78792       21.59381
C         73.99244       45.78908       22.92359
O         73.99462       44.73828       23.54996
C         74.16890       45.94610       20.37806
C         75.31906       44.96470       20.42445
C         75.08821       43.58002       20.54176
C         76.64184       45.43406       20.36760
C         76.16184       42.68953       20.61671
C         77.71204       44.53768       20.42900
C         77.47266       43.16739       20.55857
H         72.19088       47.52575       20.86423
H         72.76618       44.78564       21.47570
H         74.55012       46.98433       20.31446
H         73.57241       45.76459       19.45768
H         74.08230       43.18473       20.59131
H         76.84623       46.49332       20.27383
H         75.97623       41.62836       20.72211
H         78.72770       44.90702       20.38026
H         78.30264       42.47571       20.61417
N         74.67802       46.86411       23.43522
C         75.47445       46.76795       24.65144
C         74.63110       46.58934       25.90109
O         75.19999       46.27390       26.93769
C         76.30307       48.05404       24.64872
C         75.35714       49.03089       23.97986
C         74.77208       48.18314       22.84728
H         76.16668       45.89867       24.58770
H         76.71868       48.36015       25.63312
H         77.15338       47.91302       23.94240
H         74.54572       49.25654       24.70887
H         75.81420       49.98781       23.64871
H         73.79053       48.60890       22.55321
H         75.46838       48.13971       21.98410
N         73.27803       46.74502       25.88891
C         72.44405       46.39134       27.02854
C         72.39186       44.87999       27.11784
O         72.77572       44.32048       28.13488
C         71.03019       46.98224       26.87407
C         71.08956       48.52196       26.89493
C         69.75314       49.18407       26.75032
O         68.72492       48.53537       26.64697
O         69.69684       50.52654       26.72422
H         72.81639       47.08882       25.03399
H         72.86837       46.81860       27.96633
H         70.39770       46.63266       27.71666
H         70.57057       46.62983       25.92822
H         71.72942       48.88405       26.06403
H         71.53569       48.86014       27.85565
N         71.95661       44.15379       26.05132
C         71.93507       42.70998       26.03456
H         72.96282       42.31641       26.18356
H         71.26200       42.32817       26.82896
H         71.56415       42.35471       25.04809
H         71.64981       44.64385       25.20327
Ca        67.80670       51.64997       24.98007
O         65.99659       48.46099       27.90401
H         65.04658       48.19716       27.99056
H         66.48755       47.60479       27.83614
O         64.72250       50.91540       26.83902
H         63.85992       50.44089       26.94307
H         64.58201       51.78637       27.28721

Ca 1.0



