%chk=holoCaM.loop1.water2.frame415.chk
%nprocshared=20
%mem=10GB
%nosave
#b3lyp/svp scf=(tight,noincore,xqc) Test 
#IOP(5/87=12) Density=Current Pop=(MK,readradii) iop(6/33=2) iop(6/42=6)

holoCaM.loop1.water2.frame415 

   0  1 
C          0.01340       82.16389       23.48485
C          0.59158       82.30057       22.10604
O         -0.12902       82.69658       21.20351
H         -0.83057       81.44427       23.46536
H          0.77136       81.79942       24.21061
H         -0.35442       83.15241       23.83222
N          1.90461       82.02010       21.88153
C          2.56106       82.17285       20.58718
C          2.07258       81.12762       19.57459
O          2.62663       80.03841       19.51389
C          4.08765       82.09959       20.80805
C          4.87233       82.24581       19.54759
O          4.77830       83.25143       18.86226
O          5.70267       81.25570       19.18337
H          2.47831       81.73985       22.69305
H          2.35030       83.19482       20.19848
H          4.34849       81.12532       21.27811
H          4.39554       82.90854       21.50661
N          1.02512       81.40692       18.74473
C          0.48991       80.47731       17.74658
C          1.41946       80.18937       16.55950
O          1.01523       79.37759       15.73731
C         -0.87752       80.97662       17.17779
C         -0.82137       82.35974       16.49563
C         -2.10205       82.68982       15.71616
C         -2.15861       84.15007       15.21375
N         -1.01976       84.51520       14.37187
H          0.54535       82.30021       18.88522
H          0.28519       79.51066       18.25801
H         -1.63307       81.02157       17.99246
H         -1.23838       80.22459       16.44246
H          0.03314       82.40232       15.79303
H         -0.70042       83.11920       17.27810
H         -2.98462       82.53770       16.37346
H         -2.18170       81.99311       14.85333
H         -2.20103       84.84534       16.08067
H         -3.09684       84.27909       14.63120
H         -0.90140       83.83343       13.58824
H         -1.17747       85.46974       13.97468
H         -0.15867       84.55998       14.95698
N          2.62477       80.80578       16.35417
C          3.39723       80.60885       15.11865
C          4.74667       79.96743       15.39168
O          5.02472       78.90768       14.84860
C          3.60952       81.95383       14.40036
C          2.32223       82.69903       14.16002
O          2.14584       83.92816       14.69196
O          1.44436       82.20459       13.47151
H          2.98104       81.47509       17.05118
H          2.84771       79.95003       14.41074
H          4.11985       81.78110       13.42840
H          4.28202       82.57910       15.01063
N          5.63746       80.57307       16.22157
C          6.95987       80.05041       16.54020
C          8.04107       81.09409       16.33069
O          9.03249       80.81395       15.67319
H          5.33441       81.43885       16.68376
H          7.19454       79.12231       15.97476
H          6.97162       79.78618       17.61661
N          7.91169       82.32226       16.90535
C          8.91779       83.38144       16.90281
C          9.24266       83.83310       18.32979
O         10.06756       84.72277       18.48481
C          8.40876       84.57032       16.05587
C          7.00445       84.97024       16.41168
O          6.04951       84.78433       15.49073
O          6.70823       85.34066       17.53360
H          7.03055       82.53340       17.38862
H          9.86690       83.02809       16.44342
H          8.39539       84.23983       14.99355
H          9.09729       85.43931       16.12509
N          8.63098       83.27965       19.41890
C          8.85866       83.69714       20.78793
C          8.48026       85.14030       21.01423
O          9.26344       85.85156       21.62198
H          7.95513       82.51625       19.30575
H          9.91597       83.51477       21.07922
H          8.21326       83.07611       21.44772
N          7.26529       85.61420       20.61068
C          6.76845       86.97102       20.88013
C          5.26419       87.07236       20.60760
O          4.70842       86.25614       19.88337
C          7.49096       88.11388       20.09228
C          8.95718       88.39258       20.44832
O          7.36280       87.93081       18.70718
H          6.63765       84.93068       20.16201
H          6.88048       87.13923       21.97416
H          6.96715       89.05902       20.35412
H          8.01193       87.23020       18.43773
H          9.29227       89.31053       19.92055
H          9.06515       88.55741       21.54106
H          9.62726       87.58076       20.10542
N          4.53657       88.05201       21.22174
C          3.08526       88.19678       21.12762
C          2.75649       89.53506       20.46465
O          3.04429       90.58626       21.02013
C          2.44682       88.04800       22.55862
C          2.21228       86.56779       22.98676
C          1.08713       88.76125       22.70058
C          3.42888       85.65175       22.99460
H          5.03726       88.72536       21.82231
H          2.64612       87.40364       20.48839
H          3.11697       88.54953       23.29168
H          1.44591       86.10402       22.32568
H          1.80785       86.57034       24.02294
H          0.34630       88.34864       21.99627
H          0.70089       88.64209       23.73494
H          1.17413       89.85239       22.53102
H          3.77968       85.46435       21.96951
H          4.24194       86.07474       23.61879
H          3.13369       84.66099       23.40196
N          2.12454       89.54151       19.25604
C          1.62309       90.72736       18.56761
C          0.34480       91.21963       19.23709
O         -0.09554       90.63593       20.21714
C          1.28803       90.38644       17.07581
C          2.51412       89.94216       16.27264
O          0.24365       89.44333       16.98150
H          1.97041       88.64017       18.80359
H          2.40156       91.52125       18.56264
H          0.94266       91.30219       16.55577
H          0.62412       88.52928       17.01870
H          2.22534       89.78244       15.21193
H          3.30611       90.71897       16.31141
H          2.90927       88.99236       16.67229
N         -0.35917       92.24503       18.68197
C         -1.72339       92.58492       19.07464
C         -2.63769       91.38276       18.85789
O         -3.45440       91.09433       19.71990
C         -2.26076       93.78441       18.24866
C         -1.46840       95.06769       18.52402
O         -2.22428       93.49030       16.87418
H          0.05458       92.74549       17.88354
H         -1.75555       92.88126       20.14745
H         -3.31599       93.95989       18.56831
H         -2.88623       94.08342       16.43163
H         -1.91032       95.90988       17.95077
H         -1.51120       95.31886       19.60483
H         -0.40645       94.96235       18.22101
N         -2.55631       90.64623       17.70988
C         -3.45386       89.53329       17.39560
C         -3.30536       88.33182       18.33259
O         -4.11369       87.41978       18.22433
C         -3.25516       89.03471       15.93594
C         -3.24087       90.12976       14.84761
C         -4.45004       91.07032       14.90031
C         -4.33377       92.15969       13.82653
N         -5.44115       93.10864       13.92528
H         -1.85252       90.93100       17.01875
H         -4.49281       89.91875       17.48868
H         -4.06949       88.31301       15.70368
H         -2.28778       88.48976       15.85689
H         -3.19025       89.63358       13.85355
H         -2.31821       90.73772       14.94189
H         -4.47983       91.57498       15.88875
H         -5.38793       90.49094       14.75975
H         -4.32868       91.69304       12.81664
H         -3.37609       92.71184       13.96246
H         -5.43059       93.57289       14.86307
H         -5.33057       93.84102       13.18749
H         -6.35212       92.61512       13.78527
N         -2.29602       88.24039       19.24798
C         -2.09918       87.09982       20.14050
C         -2.24243       87.49845       21.60840
O         -2.17545       86.61439       22.45210
C         -0.69280       86.50031       19.89369
C         -0.52455       85.94014       18.47459
C          0.90166       85.51437       18.21341
O          1.89803       86.40855       18.24771
O          1.17187       84.36526       17.92914
H         -1.60721       88.99615       19.30503
H         -2.86747       86.31704       19.95434
H         -0.49458       85.67814       20.61710
H          0.05894       87.29967       20.05295
H         -0.78798       86.71077       17.72226
H         -1.22295       85.08522       18.35481
N         -2.44062       88.78962       22.00394
C         -2.58865       89.16108       23.39484
H         -3.48570       88.66987       23.82639
H         -1.68930       88.86170       23.97079
H         -2.71086       90.26268       23.48089
H         -2.48015       89.54748       21.31564
Ca         3.85014       84.77819       15.88370
O          2.79261       87.19552       14.64762
H          3.46522       86.99681       13.94894
H          1.92793       86.92095       14.25197
O          5.04171       87.80007       17.14828
H          5.27480       88.21544       16.28027
H          4.97727       88.56177       17.77887

Ca 1.0



