%chk=holoCaM-CaMKII.loop4.water2.frame2.chk
%nprocshared=20
%mem=10GB
%nosave
#b3lyp/svp scf=(tight,noincore,xqc) Test 
#IOP(5/87=12) Density=Current Pop=(MK,readradii) iop(6/33=2) iop(6/42=6)

holoCaM-CaMKII.loop4.water2.frame2 

   -3  1 
C         76.97440       57.85185       69.32320
C         77.34110       57.11224       70.57478
O         76.73394       56.09051       70.86091
H         75.92135       58.19605       69.39036
H         77.62460       58.74074       69.17465
H         77.09093       57.18037       68.44837
N         78.30921       57.60141       71.39435
C         78.70870       56.97017       72.64020
C         78.11797       57.77691       73.77312
O         78.29505       58.98755       73.80155
C         80.23979       56.92457       72.71240
C         80.75603       56.21280       73.92445
O         81.95493       56.17519       74.10833
O         79.93340       55.60295       74.79793
H         78.74993       58.50383       71.15476
H         78.32939       55.92393       72.69284
H         80.63635       57.96348       72.71582
H         80.64020       56.39663       71.81976
N         77.37487       57.16270       74.73365
C         76.61835       57.88830       75.74146
C         77.33803       57.77750       77.08265
O         77.73396       58.80840       77.60935
C         75.13328       57.39898       75.70477
C         74.56447       57.57083       74.26060
C         74.27753       58.14897       76.73586
C         73.12969       57.07713       74.06382
H         77.30513       56.13393       74.72790
H         76.59889       58.97373       75.49218
H         75.09935       56.32150       75.96371
H         75.18856       56.98630       73.55025
H         74.61426       58.63937       73.95819
H         73.23994       57.75560       76.74619
H         74.68452       57.99871       77.75675
H         74.25091       59.23480       76.50684
H         72.40922       57.67628       74.65505
H         72.85115       57.18346       72.99238
H         73.04426       56.00826       74.34354
N         77.58685       56.57648       77.68011
C         78.33784       56.45282       78.93898
C         79.82112       56.84040       78.82606
O         80.48540       56.86741       79.85282
C         78.19522       55.02536       79.51918
C         78.71764       53.93570       78.61954
O         78.49880       52.76862       78.90101
O         79.33485       54.23689       77.46101
H         77.20454       55.73096       77.23719
H         77.86373       57.13642       79.67843
H         77.10740       54.84391       79.66875
H         78.68665       54.95442       80.51361
N         80.40924       57.16200       77.63648
C         81.79126       57.60603       77.50910
C         82.81400       56.54902       77.87602
O         83.63634       56.79809       78.74567
H         79.85206       57.14255       76.77400
H         81.93943       58.51889       78.12669
H         81.97737       57.88624       76.44965
N         82.84274       55.35704       77.21708
C         83.84698       54.31233       77.43892
C         84.58751       53.94573       76.14592
O         85.29563       52.94875       76.12338
C         83.17093       53.08756       78.09070
C         82.11016       52.39418       77.27801
O         81.45346       51.35496       77.82561
O         81.83706       52.74547       76.14135
H         82.10792       55.18185       76.51742
H         84.61638       54.64619       78.16925
H         82.70792       53.42779       79.04234
H         83.94995       52.33641       78.34530
N         84.48862       54.73016       75.03756
C         85.10064       54.44549       73.75162
C         84.52097       53.21718       73.08975
O         85.28758       52.42136       72.57740
H         83.97169       55.61192       75.10227
H         86.20617       54.37342       73.84147
H         84.87479       55.29915       73.07465
N         83.17008       53.06465       72.98690
C         82.47456       52.00700       72.24006
C         80.98432       52.32391       72.11549
O         80.45468       53.16908       72.82545
C         82.60816       50.57463       72.85287
C         83.88995       49.80684       72.48344
C         83.85413       48.38493       72.98005
N         83.87779       48.11702       74.30587
O         83.83072       47.46415       72.17656
H         82.60709       53.81289       73.41265
H         82.85213       52.01983       71.19389
H         81.79820       49.94191       72.42426
H         82.44081       50.61379       73.95093
H         84.79805       50.25209       72.91000
H         83.96831       49.79684       71.37283
H         83.92378       48.88067       74.99590
H         83.87392       47.14266       74.64229
N         80.25454       51.67286       71.16802
C         78.83533       51.88836       70.93454
C         78.13169       50.55642       71.12199
O         78.49404       49.57945       70.48029
C         78.61271       52.50078       69.52380
C         77.11710       52.71689       69.22950
C         79.33742       53.85599       69.41142
H         80.73716       50.99618       70.55515
H         78.42014       52.62178       71.66295
H         79.02565       51.81512       68.75162
H         76.65933       53.39893       69.97826
H         76.98547       53.16338       68.22001
H         76.56886       51.75330       69.24238
H         78.95076       54.57178       70.16897
H         80.42958       53.73760       69.56873
H         79.18769       54.29609       68.40255
N         77.09353       50.46488       71.99180
C         76.34429       49.24862       72.27374
C         75.07838       49.25871       71.44005
O         74.84422       50.22217       70.73017
C         76.06915       49.22196       73.80147
C         75.23451       48.07476       74.30855
N         75.65817       46.79662       74.19106
O         74.16197       48.30756       74.84744
H         76.75615       51.33345       72.41946
H         76.92842       48.35255       71.97013
H         75.54605       50.16314       74.07189
H         77.03987       49.21160       74.34169
H         76.56084       46.57966       73.74645
H         75.07609       46.02267       74.54510
N         74.23517       48.19369       71.42155
C         73.01273       48.17752       70.63156
C         72.05238       49.24220       71.12978
O         71.63178       50.07799       70.34180
C         72.37403       46.77433       70.69354
C         71.15945       46.62993       69.80715
C         71.25754       46.83838       68.41945
C         69.92205       46.25600       70.35652
C         70.13827       46.67662       67.59885
C         68.80507       46.08838       69.53231
C         68.91058       46.29716       68.14945
O         67.84412       46.13085       67.34166
H         74.48314       47.35374       71.96094
H         73.27846       48.38000       69.57054
H         72.12174       46.52940       71.74872
H         73.12561       46.03064       70.35002
H         72.19975       47.12003       67.96749
H         69.82228       46.08334       71.42087
H         70.22842       46.83903       66.53200
H         67.86017       45.79115       69.96903
H         66.98061       45.85439       67.67998
N         71.67061       49.27235       72.44012
C         70.70899       50.23813       72.97014
C         71.19546       51.68755       72.86362
O         70.39157       52.58670       73.06517
C         70.35854       49.85241       74.42819
C         69.15578       50.60647       75.01224
C         68.81131       50.06694       76.37174
O         69.70397       50.14293       77.37748
O         67.72099       49.55502       76.57095
H         72.05072       48.54987       73.07072
H         69.78779       50.13270       72.35516
H         71.25311       49.98663       75.07757
H         70.08966       48.77216       74.42918
H         68.28414       50.47245       74.33416
H         69.36999       51.68924       75.11127
N         72.48242       51.99725       72.53003
C         72.95471       53.36445       72.34470
C         72.72887       53.76891       70.90282
O         72.04421       54.75317       70.66248
C         74.43401       53.49430       72.77850
C         74.57044       53.11741       74.26348
C         75.94643       53.31058       74.82496
O         76.09411       54.05774       75.77503
O         77.01396       52.62827       74.37187
H         73.16260       51.24158       72.38117
H         72.37783       54.06113       72.99410
H         74.76169       54.54773       72.63487
H         75.08079       52.84350       72.15516
H         74.28010       52.05989       74.41794
H         73.87018       53.75041       74.85126
N         73.23452       53.01443       69.88909
C         73.00494       53.27540       68.48452
H         72.40098       54.19032       68.31649
H         73.98035       53.38565       67.96735
H         72.46389       52.41124       68.04134
H         73.78636       52.18485       70.11833
Ca        78.81927       53.02097       75.65014
O         79.87688       50.10616       74.91610
H         80.37777       50.37047       75.72655
H         80.22045       49.20295       74.70283
O         77.27782       50.62004       76.76230
H         76.98291       49.94390       77.42177
H         76.86922       51.46575       77.07502

Ca 1.0



