%chk=holoCaM-CaMKII.loop3.water1.frame461.chk
%nprocshared=20
%mem=10GB
%nosave
#b3lyp/svp scf=(tight,noincore,xqc) Test 
#IOP(5/87=12) Density=Current Pop=(MK,readradii) iop(6/33=2) iop(6/42=6)

holoCaM-CaMKII.loop3.water1.frame461 

   0  1 
C         69.29941       69.97474       25.66250
C         68.66349       70.23699       24.32985
O         69.37773       70.55245       23.38830
H         69.83942       70.88264       26.00213
H         68.54111       69.70481       26.42724
H         70.01968       69.13480       25.56874
N         67.31733       70.10301       24.16556
C         66.66534       70.31317       22.88084
C         66.77389       71.78065       22.49395
O         66.34862       72.62979       23.26552
C         65.18864       69.86988       22.94454
C         64.62346       69.64615       21.56677
O         64.64504       70.62136       20.64260
O         64.17941       68.55082       21.27023
H         66.74808       69.80435       24.97268
H         67.16969       69.65308       22.14008
H         64.58572       70.60814       23.51473
H         65.12439       68.89544       23.47794
N         67.34676       72.14863       21.31703
C         67.55627       73.53766       20.91607
C         66.25766       74.34031       20.92748
O         66.25084       75.40477       21.53016
C         68.27888       73.57873       19.54753
C         68.78188       74.98218       19.15437
C         69.68757       74.90034       17.90908
C         70.33219       76.24260       17.51561
N         69.35136       77.22393       17.05221
H         67.67739       71.40132       20.69037
H         68.25607       74.00007       21.64942
H         67.62846       73.16251       18.74771
H         69.17772       72.92763       19.63991
H         69.38891       75.39424       19.99052
H         67.91589       75.65292       18.97537
H         69.12166       74.48928       17.04549
H         70.52263       74.20104       18.13751
H         71.05313       76.04910       16.68955
H         70.90784       76.65631       18.37368
H         69.85716       78.08663       16.74520
H         68.82047       76.84072       16.23665
H         68.69377       77.48298       17.82058
N         65.11677       73.88443       20.32572
C         63.86664       74.65327       20.28492
C         62.71335       74.03754       21.09430
O         61.65680       74.65400       21.13452
C         63.47883       74.90742       18.81459
C         63.23027       73.64456       18.03582
O         63.93827       73.36266       17.08260
O         62.21419       72.83035       18.36707
H         65.14017       72.96318       19.86677
H         64.02710       75.65605       20.73997
H         64.31097       75.46907       18.33543
H         62.57006       75.54530       18.76443
N         62.85046       72.89223       21.82665
C         61.84515       72.42322       22.77812
C         60.73174       71.55033       22.21932
O         59.88011       71.16426       23.00867
H         63.77136       72.44709       21.86664
H         61.39389       73.30044       23.29488
H         62.35828       71.83074       23.56352
N         60.62921       71.21353       20.90160
C         59.46017       70.50361       20.37301
C         59.34106       69.03766       20.78820
O         58.29398       68.46799       20.51081
C         59.37568       70.64113       18.83539
C         60.48282       69.96535       18.06364
N         60.52589       70.08098       16.71802
O         61.34073       69.31542       18.63841
H         61.33648       71.56937       20.24896
H         58.56216       71.03138       20.76760
H         59.38712       71.72479       18.58916
H         58.40708       70.22438       18.48171
H         59.80993       70.62398       16.21382
H         61.28047       69.63267       16.17992
N         60.34086       68.34962       21.41946
C         60.18499       66.95730       21.83455
C         61.12780       65.98610       21.15077
O         61.01496       64.80357       21.44456
H         61.23387       68.81922       21.62737
H         59.15721       66.59001       21.62871
H         60.33995       66.89434       22.93287
N         62.08577       66.37480       20.25783
C         62.99532       65.41288       19.62581
C         64.22716       66.08509       19.04972
O         64.20341       67.28320       18.80249
C         62.24782       64.56398       18.57110
C         61.69271       65.41128       17.44435
C         62.53406       65.89278       16.42484
C         60.32385       65.72845       17.40461
C         62.01563       66.67538       15.38889
C         59.81032       66.52240       16.37432
C         60.65538       66.99645       15.36112
O         60.17404       67.76235       14.36097
H         62.20065       67.37755       20.06940
H         63.38204       64.75507       20.43658
H         61.41156       64.04682       19.08560
H         62.89417       63.76260       18.15171
H         63.59010       65.65465       16.42292
H         59.65549       65.37550       18.17985
H         62.67283       67.03455       14.60696
H         58.75623       66.76925       16.36520
H         59.24227       68.01954       14.31186
N         65.38500       65.37535       18.90312
C         66.64219       66.01111       18.51988
C         67.28926       65.35550       17.31540
O         66.92335       64.25400       16.92898
C         67.63403       66.04449       19.72862
C         68.02126       64.61825       20.21091
C         67.03643       66.88539       20.87030
C         69.06965       64.60554       21.32592
H         65.38777       64.37497       19.15301
H         66.44759       67.06097       18.22399
H         68.56205       66.55880       19.39650
H         68.45043       64.05279       19.35655
H         67.12611       64.07235       20.57594
H         66.77727       67.89423       20.49410
H         66.12104       66.40932       21.28089
H         67.76383       67.02918       21.69383
H         68.68286       65.07726       22.25183
H         69.32752       63.55421       21.57467
H         69.99163       65.13004       20.99775
N         68.30053       66.01754       16.68949
C         69.13407       65.47685       15.62296
C         70.59048       65.56748       16.05734
O         70.84540       66.07205       17.13999
C         68.89475       66.28165       14.33599
O         69.19646       67.63560       14.54241
H         68.51526       66.97392       17.00985
H         68.88103       64.41255       15.42439
H         67.82207       66.17238       14.05547
H         69.52517       65.88158       13.51243
H         68.83247       68.12595       13.76034
N         71.61272       65.10641       15.28181
C         73.00611       65.27888       15.69344
C         73.41049       66.74825       15.69141
O         74.31956       67.10946       16.42580
C         73.95823       64.48840       14.79785
H         71.39602       64.62583       14.39531
H         73.11558       64.86946       16.72395
H         73.69313       63.41037       14.82988
H         73.89994       64.84851       13.74932
H         75.00256       64.60005       15.16314
N         72.79005       67.64832       14.87260
C         73.10450       69.07381       14.85680
C         72.80897       69.68257       16.20983
O         73.67763       70.31511       16.79343
C         72.27010       69.78781       13.78278
H         72.05474       67.30863       14.23453
H         74.17625       69.22221       14.59624
H         72.49551       69.36006       12.78279
H         71.18167       69.67496       13.97561
H         72.51615       70.87122       13.76235
N         71.58698       69.49022       16.77553
C         71.19733       70.00370       18.08369
C         72.14953       69.49018       19.14889
O         72.73910       70.29521       19.85639
C         69.74449       69.58460       18.40181
C         68.74280       70.21720       17.41515
C         67.34667       69.74546       17.67857
O         66.78318       69.94646       18.88020
O         66.71144       69.18366       16.80040
H         70.91331       68.91400       16.25049
H         71.23664       71.11664       18.07763
H         69.48027       69.91380       19.43112
H         69.66864       68.47784       18.36434
H         68.99722       69.96308       16.36568
H         68.77774       71.32166       17.51644
N         72.37956       68.15777       19.29134
C         73.31328       67.62492       20.25713
H         74.32737       68.03955       20.07240
H         72.98355       67.88018       21.28531
H         73.36374       66.51882       20.15973
H         71.89723       67.49697       18.67523
Ca        63.95536       70.28666       18.51795
O         63.99077       69.99118       15.44658
H         64.03846       69.00476       15.37769
H         63.31192       70.25562       14.77628

Ca 1.0



