%chk=holoCaM.loop2.water2.frame348.chk
%nprocshared=20
%mem=10GB
%nosave
#b3lyp/svp scf=(tight,noincore,xqc) Test 
#IOP(5/87=12) Density=Current Pop=(MK,readradii) iop(6/33=2) iop(6/42=6)

holoCaM.loop2.water2.frame348 

   -2  1 
C         11.96629       26.06990      100.95267
C         12.06103       25.16358      102.14730
O         11.28454       24.22871      102.26308
H         12.92339       26.02464      100.38641
H         11.14682       25.75641      100.27240
H         11.79545       27.11593      101.27944
N         13.05328       25.36123      103.05277
C         13.35044       24.44170      104.14485
C         12.34915       24.52614      105.29639
O         12.13464       25.61783      105.80483
C         14.75756       24.76854      104.69234
C         15.31701       23.67834      105.55356
O         16.52595       23.83659      106.12107
O         14.72003       22.62446      105.69119
H         13.70356       26.14352      102.87472
H         13.39534       23.41481      103.71790
H         14.72898       25.72761      105.25384
H         15.47186       24.88483      103.85131
N         11.77413       23.39854      105.81639
C         10.90888       23.39688      106.99831
C         11.46699       22.56305      108.16695
O         10.85228       22.59136      109.22419
C          9.52439       22.86866      106.60200
H         11.97867       22.49975      105.36786
H         10.78244       24.43408      107.37615
H          9.09439       23.49500      105.79146
H          9.59712       21.82027      106.23809
H          8.82791       22.89655      107.46758
N         12.57440       21.76573      108.05307
C         13.05792       20.86856      109.11419
C         14.58171       20.92184      109.34866
O         15.05071       20.18172      110.20282
C         12.60311       19.42746      108.79629
C         12.87032       19.05605      107.37646
O         14.10326       19.13883      106.86397
O         11.94199       18.74129      106.64793
H         13.02721       21.68656      107.13742
H         12.59088       21.12110      110.09107
H         11.50382       19.35794      108.95174
H         13.08281       18.69949      109.48480
N         15.41241       21.77661      108.68414
C         16.84565       21.90455      108.95714
C         17.74474       20.73543      108.54946
O         18.94017       20.84155      108.78425
H         15.00362       22.44634      108.02768
H         16.98111       22.10273      110.04263
H         17.22650       22.79345      108.41240
N         17.27688       19.59879      107.95986
C         18.12006       18.43409      107.64724
C         19.07175       18.61395      106.44363
O         19.75740       17.65682      106.11082
C         17.22333       17.17828      107.48939
C         16.31265       17.19742      106.29527
N         15.38321       16.22963      106.13047
O         16.40158       18.09139      105.47468
H         16.26575       19.51805      107.81906
H         18.74050       18.21075      108.54375
H         16.59582       17.09933      108.40483
H         17.84902       16.26190      107.42952
H         15.27785       15.47594      106.82440
H         14.75233       16.24649      105.31687
N         19.20601       19.79722      105.77127
C         20.17085       20.01964      104.69507
C         19.78980       19.49214      103.31321
O         20.57733       19.70025      102.40195
H         18.69980       20.62244      106.11000
H         21.16310       19.62113      105.00211
H         20.29006       21.11724      104.56658
N         18.62375       18.83047      103.06094
C         18.22508       18.33888      101.73493
C         16.85728       18.88308      101.31489
O         16.21059       19.57810      102.08113
C         18.17923       16.78348      101.75917
C         19.58371       16.18642      101.84023
O         17.41879       16.31730      102.84583
H         17.99112       18.64607      103.84236
H         18.94637       18.65949      100.95116
H         17.75575       16.37755      100.81416
H         16.47165       16.54994      102.66362
H         19.51797       15.07698      101.83537
H         20.17580       16.49762      100.95170
H         20.10855       16.51258      102.76103
N         16.33685       18.52322      100.10218
C         14.96669       18.78563       99.67193
C         14.18459       17.49316       99.81332
O         14.64630       16.43440       99.41399
C         14.90001       19.36832       98.21547
C         15.14554       20.90144       98.26781
C         13.54097       19.07193       97.53342
C         15.09261       21.60715       96.90776
H         16.90126       17.91754       99.48884
H         14.46544       19.51388      100.34642
H         15.66816       18.86609       97.58715
H         16.13708       21.09738       98.72657
H         14.36608       21.37207       98.90993
H         13.52782       19.42178       96.48348
H         13.36858       17.97773       97.45563
H         12.70223       19.53445       98.09235
H         15.28501       22.69147       97.04842
H         15.85550       21.18830       96.22080
H         14.08818       21.52743       96.44170
N         12.92427       17.56259      100.31960
C         12.02821       16.43589      100.51577
C         10.91144       16.54129       99.49747
O         10.91785       17.47021       98.70526
C         11.43341       16.51430      101.93735
C         12.47246       16.72019      102.99475
O         13.27830       17.79271      102.89247
O         12.51234       16.00808      103.98473
H         12.54962       18.48694      100.56059
H         12.56894       15.47594      100.37381
H         10.80713       15.62530      102.16479
H         10.78081       17.41511      101.99171
N          9.91215       15.61817       99.44696
C          8.84427       15.71958       98.46114
C          8.03840       17.01265       98.61334
O          7.96717       17.72433       97.61947
C          7.96393       14.45431       98.43458
C          6.77126       14.67388       97.53299
C          6.93995       15.04306       96.18460
C          5.47371       14.56709       98.05814
C          5.82768       15.31888       95.38671
C          4.36457       14.83327       97.25291
C          4.54103       15.21477       95.92040
H          9.92871       14.82287      100.10088
H          9.32332       15.75362       97.45690
H          7.62673       14.18363       99.45052
H          8.57439       13.59950       98.07113
H          7.92858       15.14438       95.75531
H          5.32062       14.29140       99.09429
H          5.96505       15.62294       94.35717
H          3.36862       14.75449       97.66729
H          3.68087       15.43384       95.30262
N          7.39595       17.41324       99.75429
C          6.68944       18.68329       99.87525
C          7.51558       19.87696       99.41885
O          7.02729       20.69333       98.65267
C          6.41228       18.79992      101.38288
C          6.21451       17.35746      101.76864
C          7.34281       16.67129      101.00061
H          5.73437       18.62043       99.30549
H          7.32653       19.13338      101.92513
H          5.58266       19.49019      101.64706
H          6.20102       17.14845      102.85946
H          5.24099       17.03374      101.33182
H          8.32479       16.75748      101.51273
H          7.04689       15.61633      100.88678
N          8.78508       20.03372       99.88658
C          9.61435       21.20900       99.61877
C         10.02691       21.31865       98.15526
O         10.48593       22.37968       97.75425
C         10.89291       21.15497      100.47962
C         10.59802       21.03764      101.99276
C         11.82279       20.75448      102.80976
O         12.92686       20.67322      102.29795
O         11.68360       20.51074      104.12374
H          9.14992       19.28778      100.49324
H          9.02866       22.11045       99.90522
H         11.52840       22.04971      100.29719
H         11.45702       20.26598      100.14868
H          9.92035       20.19242      102.20749
H         10.10032       21.95957      102.35583
N          9.95802       20.25082       97.31494
C         10.36774       20.30712       95.93002
H         11.43279       20.61025       95.85758
H         10.25551       19.30258       95.46585
H          9.73275       21.02809       95.37550
H          9.63600       19.34969       97.67227
Ca        14.01678       18.83682      104.67604
O         15.27809       22.29119      102.23025
H         15.66498       23.19988      102.19347
H         14.85192       22.16770      101.34612
O         16.70464       20.97927      104.40191
H         17.38536       21.63641      104.10983
H         16.65392       21.08307      105.38376

Ca 1.0



