%chk=holoCaM-CaMKII.loop3.water2.frame446.chk
%nprocshared=20
%mem=10GB
%nosave
#b3lyp/svp scf=(tight,noincore,xqc) Test 
#IOP(5/87=12) Density=Current Pop=(MK,readradii) iop(6/33=2) iop(6/42=6)

holoCaM-CaMKII.loop3.water2.frame446 

   0  1 
C         73.59891       73.40340       33.26712
C         74.08273       74.53737       34.11070
O         75.14014       75.07194       33.82289
H         72.64005       73.69221       32.79018
H         74.33963       73.17329       32.47031
H         73.45165       72.50033       33.89370
N         73.36680       74.95287       35.19110
C         73.77994       76.07874       36.01341
C         74.31516       75.53750       37.32645
O         73.54557       75.06586       38.15213
C         72.58637       77.04521       36.14966
C         72.87749       78.35102       36.81878
O         73.99616       78.63788       37.20756
O         71.87527       79.23357       36.96219
H         72.50864       74.44033       35.44833
H         74.60346       76.62801       35.50746
H         71.76492       76.53774       36.70089
H         72.21663       77.29182       35.13049
N         75.66646       75.46329       37.51536
C         76.28420       74.82787       38.67855
C         76.12618       75.65568       39.94689
O         76.39312       75.13541       41.02123
C         77.80234       74.61464       38.45554
C         78.13783       73.72068       37.24814
C         79.65698       73.52044       37.14017
C         80.02714       72.61868       35.95538
N         81.47296       72.39860       35.90101
H         76.27266       75.80115       36.75677
H         75.80739       73.83243       38.82097
H         78.22862       74.13363       39.36380
H         78.29593       75.60385       38.32421
H         77.76839       74.17928       36.30636
H         77.64637       72.73227       37.37840
H         80.02672       73.05177       38.07846
H         80.15536       74.50739       37.01447
H         79.68917       73.09182       35.00623
H         79.51510       71.63672       36.06207
H         81.79741       71.92881       36.77785
H         81.69681       71.78124       35.08742
H         81.97418       73.30914       35.78427
N         75.80863       76.97815       39.88481
C         75.76836       77.87099       41.04124
C         74.42826       78.57368       41.18862
O         74.28458       79.33843       42.13337
C         76.95151       78.87536       40.97003
C         77.08093       79.68980       39.70168
O         78.07338       80.37945       39.53875
O         76.17083       79.60036       38.71475
H         75.65171       77.38521       38.95789
H         75.91503       77.29353       41.98079
H         77.88209       78.27040       41.04481
H         76.92821       79.55688       41.84814
N         73.38871       78.35935       40.32769
C         72.09489       79.00537       40.47997
C         72.11814       80.51189       40.28277
O         71.07595       81.12134       40.47757
H         73.48270       77.67995       39.56212
H         71.70563       78.77388       41.49565
H         71.38322       78.58052       39.73977
N         73.24479       81.19247       39.91367
C         73.29390       82.64963       39.81753
C         72.40627       83.24158       38.72692
O         72.29527       84.45906       38.69193
C         74.75804       83.14257       39.69459
C         75.51977       82.68691       38.47140
N         76.82219       83.02948       38.33551
O         74.98262       82.00598       37.61180
H         74.11518       80.67199       39.75792
H         72.91942       83.05061       40.78524
H         75.31020       82.77297       40.58607
H         74.77497       84.25328       39.72181
H         77.29224       83.59939       39.05411
H         77.36753       82.72097       37.51817
N         71.75036       82.47517       37.80723
C         70.83987       83.03748       36.82008
C         71.40315       83.03721       35.41850
O         70.72289       83.54940       34.53947
H         71.89236       81.46037       37.79698
H         70.60258       84.09359       37.06211
H         69.87970       82.47560       36.84876
N         72.61995       82.49937       35.11229
C         73.15619       82.53512       33.75461
C         74.29676       81.55637       33.54917
O         74.82725       81.01203       34.50849
C         73.60012       83.96599       33.34197
C         74.76809       84.50074       34.15622
C         76.01260       84.73238       33.53936
C         74.63072       84.78641       35.52745
C         77.09453       85.22269       34.27987
C         75.71257       85.27991       36.26349
C         76.95029       85.49456       35.64339
O         78.00387       85.96020       36.34518
H         73.14736       82.01518       35.84971
H         72.34481       82.18062       33.08014
H         72.75491       84.68127       33.41600
H         73.88844       83.92930       32.26894
H         76.15242       84.52674       32.48563
H         73.68863       84.63781       36.03400
H         78.04819       85.38803       33.79369
H         75.58760       85.49368       37.31771
H         77.94780       86.15356       37.29215
N         74.66800       81.22974       32.27925
C         75.70091       80.24736       31.97565
C         76.67239       80.76452       30.92782
O         76.42765       81.79022       30.30597
C         75.05706       78.89351       31.53773
C         74.07352       79.07246       30.34883
C         74.37285       78.23268       32.74915
C         73.50300       77.75687       29.81450
H         74.13922       81.64262       31.49489
H         76.31431       80.06031       32.88218
H         75.86978       78.20932       31.21746
H         74.60660       79.56824       29.50978
H         73.21881       79.71590       30.64954
H         75.10669       78.10762       33.57327
H         73.52296       78.84442       33.11653
H         74.00168       77.21946       32.50052
H         72.83927       77.96993       28.94984
H         74.32266       77.08759       29.47930
H         72.88931       77.23871       30.57902
N         77.82775       80.07830       30.70658
C         78.82107       80.42383       29.69667
C         79.07039       79.22327       28.79573
O         78.46315       78.18154       29.00930
C         80.11961       80.86489       30.39607
O         80.65593       79.83063       31.17954
H         78.02417       79.25901       31.30154
H         78.46956       81.27159       29.06869
H         79.92573       81.76954       31.01861
H         80.88210       81.16946       29.64921
H         80.28531       79.93451       32.09450
N         79.96915       79.28403       27.77000
C         80.28366       78.11659       26.94985
C         80.89957       77.00803       27.78536
O         80.74830       75.84848       27.42595
C         81.23853       78.47578       25.81062
H         80.44904       80.17665       27.57785
H         79.33724       77.74686       26.49413
H         80.78548       79.26200       25.17101
H         82.20463       78.84745       26.21443
H         81.43282       77.58091       25.18002
N         81.60878       77.29166       28.91710
C         82.14417       76.26031       29.79341
C         81.01107       75.44884       30.37771
O         80.99751       74.23655       30.21365
C         82.96232       76.88797       30.93173
H         81.76426       78.27801       29.17337
H         82.83072       75.60104       29.21627
H         83.81148       77.46751       30.51272
H         82.34203       77.57210       31.54901
H         83.37231       76.09262       31.59101
N         80.01886       76.06555       31.08225
C         78.93148       75.33072       31.71543
C         78.01268       74.64380       30.70747
O         77.19628       73.83912       31.13489
C         78.12744       76.24977       32.66645
C         79.01730       76.78097       33.80490
C         78.26646       77.53258       34.86890
O         77.65674       78.71001       34.63031
O         78.26021       77.09369       36.00647
H         80.06675       77.08832       31.19941
H         79.38903       74.52929       32.33847
H         77.32542       75.64512       33.12111
H         77.66647       77.08561       32.10383
H         79.81870       77.43861       33.41319
H         79.49438       75.90140       34.29092
N         78.08780       74.89080       29.36653
C         77.28935       74.19829       28.37464
H         76.64552       74.92638       27.83936
H         77.96771       73.71447       27.63933
H         76.64670       73.40978       28.81874
H         78.73631       75.60179       29.01094
Ca        76.73032       79.58285       36.51456
O         79.75034       80.67846       36.75564
H         79.91726       80.63504       37.73003
H         80.01771       79.78632       36.42004
O         77.66543       81.97105       34.65693
H         78.46376       82.54353       34.77583
H         76.96407       82.41019       35.19991

Ca 1.0



