%chk=holoCaM-CaMKII.loop2.water1.frame464.chk
%nprocshared=20
%mem=10GB
%nosave
#b3lyp/svp scf=(tight,noincore,xqc) Test 
#IOP(5/87=12) Density=Current Pop=(MK,readradii) iop(6/33=2) iop(6/42=6)

holoCaM-CaMKII.loop2.water1.frame464 

   -2  1 
C         57.96364       94.61287       56.89956
C         58.44035       96.03775       56.80084
O         59.43333       96.37984       57.42233
H         57.06154       94.44021       56.27262
H         58.76134       93.93014       56.53533
H         57.71572       94.35942       57.94950
N         57.79215       96.91549       55.99163
C         58.25249       98.27339       55.71663
C         58.18917       99.20945       56.92074
O         57.10443       99.43903       57.43749
C         57.39395       98.84841       54.57431
C         57.77473      100.25108       54.23782
O         59.04419      100.54321       53.89554
O         56.93425      101.13397       54.29714
H         56.96805       96.56592       55.47676
H         59.29860       98.22035       55.34599
H         56.31825       98.82449       54.86156
H         57.52666       98.21701       53.67004
N         59.31844       99.84941       57.36039
C         59.31113      100.91406       58.36029
C         60.06376      102.14824       57.83548
O         60.95966      102.62978       58.51452
C         59.92788      100.38624       59.66310
H         60.22524       99.60129       56.94381
H         58.26743      101.22061       58.58676
H         59.90741      101.17242       60.44846
H         59.34606       99.51446       60.03028
H         60.97984      100.06693       59.49756
N         59.75489      102.69750       56.61823
C         60.44610      103.87063       56.03153
C         59.95885      104.32534       54.62501
O         60.46922      105.33549       54.15903
C         61.98038      103.66137       55.97831
C         62.34811      102.35450       55.36529
O         63.03066      101.56020       55.99351
O         61.93213      102.03204       54.13489
H         59.00318      102.22513       56.11306
H         60.26727      104.74263       56.69761
H         62.41975      103.69759       56.99527
H         62.46826      104.48762       55.41788
N         58.98322      103.69824       53.90417
C         58.44154      104.18402       52.63888
C         59.34144      104.10002       51.41280
O         58.87593      104.51726       50.36123
H         58.50815      102.89235       54.29010
H         58.10835      105.23511       52.77767
H         57.53892      103.58069       52.39550
N         60.61198      103.60087       51.43060
C         61.47452      103.61658       50.24307
C         61.04812      102.64848       49.12305
O         61.70865      102.65080       48.09312
C         62.96015      103.39932       50.63278
C         63.31025      102.00885       51.07948
N         64.57854      101.70751       51.44011
O         62.45752      101.14150       51.10130
H         61.00519      103.28783       52.32366
H         61.44288      104.65084       49.83361
H         63.22660      104.11585       51.44029
H         63.59778      103.62716       49.75161
H         65.31481      102.42748       51.43023
H         64.82652      100.74929       51.72642
N         59.96754      101.81360       49.22351
C         59.53759      100.94935       48.12605
C         60.43433       99.74769       47.87374
O         60.33824       99.17226       46.79832
H         59.38115      101.83119       50.06777
H         59.44847      101.56407       47.20355
H         58.52535      100.54418       48.33919
N         61.26017       99.25599       48.83935
C         62.09110       98.05755       48.68912
C         62.25397       97.32466       50.02593
O         61.72170       97.76571       51.03659
C         63.47795       98.42053       48.08227
C         63.40495       98.92284       46.63404
O         64.16244       99.33696       48.89911
H         61.23262       99.71490       49.75281
H         61.58078       97.32719       48.02176
H         64.09732       97.50355       48.02081
H         63.72205      100.22008       48.79345
H         64.43266       99.08673       46.24575
H         62.91032       98.16048       45.99371
H         62.85198       99.88031       46.56062
N         62.99162       96.17998       50.09706
C         63.18555       95.40562       51.31721
C         64.62015       95.58934       51.76948
O         65.53479       95.41579       50.97459
C         62.83828       93.90759       51.07543
C         61.37669       93.77019       50.57501
C         63.05410       93.09071       52.36782
C         60.98568       92.33794       50.20406
H         63.46211       95.83292       49.24794
H         62.51589       95.77060       52.12822
H         63.52102       93.51122       50.29098
H         61.24831       94.38104       49.65627
H         60.67233       94.15367       51.34576
H         62.37412       93.44455       53.17160
H         62.87850       92.01048       52.20108
H         64.10043       93.17704       52.72080
H         59.95110       92.33257       49.80165
H         61.67173       91.94299       49.42494
H         61.00147       91.66667       51.08572
N         64.88042       95.91528       53.06436
C         66.21565       96.15683       53.59660
C         66.64044       94.95274       54.39588
O         65.88841       93.99200       54.45835
C         66.20814       97.39237       54.52231
C         65.47968       98.55603       53.94325
O         64.17253       98.40446       53.67575
O         66.01554       99.64640       53.82746
H         64.09279       95.94747       53.72714
H         66.93983       96.31888       52.76821
H         67.24574       97.67761       54.80067
H         65.65585       97.14237       55.45495
N         67.83712       94.91066       55.03624
C         68.22312       93.74684       55.81287
C         67.29985       93.52800       57.02222
O         66.78520       92.42453       57.13711
C         69.70191       93.80123       56.23832
C         70.16195       92.41577       56.62326
C         70.25094       91.41788       55.63196
C         70.49005       92.09643       57.94848
C         70.65484       90.12480       55.96182
C         70.88886       90.79498       58.27613
C         70.97119       89.81153       57.28427
H         68.49229       95.70228       54.94103
H         68.13005       92.87895       55.12251
H         69.83985       94.53132       57.05780
H         70.34077       94.13196       55.39040
H         70.00930       91.64264       54.59946
H         70.42186       92.84619       58.72617
H         70.71917       89.36748       55.19049
H         71.13132       90.54637       59.30018
H         71.27952       88.80617       57.53828
N         67.00628       94.50301       57.95374
C         66.15668       94.28370       59.12578
C         64.67315       94.12681       58.80188
O         63.89400       94.00239       59.73701
C         66.42003       95.52258       59.99008
C         66.61683       96.59315       58.94608
C         67.50007       95.86991       57.93263
H         66.47990       93.39028       59.70381
H         65.65663       95.73581       60.76955
H         67.40275       95.39190       60.49886
H         65.62343       96.79152       58.48071
H         67.03296       97.55446       59.31524
H         67.37423       96.38323       56.96399
H         68.56188       95.87855       58.25188
N         64.21130       94.06814       57.52284
C         62.82033       93.82470       57.17375
C         62.69654       92.38773       56.70772
O         61.89606       91.65315       57.26888
C         62.35901       94.82227       56.09763
C         62.53682       96.27702       56.56587
C         62.05585       97.28765       55.56479
O         62.18535       98.59494       55.84977
O         61.55945       96.95005       54.50080
H         64.87188       94.14186       56.74422
H         62.15430       93.95444       58.05695
H         61.28794       94.63148       55.86581
H         62.94860       94.66744       55.17253
H         63.61268       96.47566       56.75452
H         61.98347       96.43477       57.51450
N         63.51576       91.89978       55.73350
C         63.53764       90.51505       55.31350
H         64.53887       90.08763       55.53932
H         62.77295       89.90203       55.83283
H         63.36569       90.45719       54.21985
H         64.19862       92.52337       55.29157
Ca        62.84919      100.13722       53.48317
O         59.34219       99.40907       51.43300
H         58.45328       99.83954       51.37088
H         59.14708       98.44775       51.56183

Ca 1.0



