%chk=holoCaM-CaMKII.loop1.water2.frame495.chk
%nprocshared=20
%mem=10GB
%nosave
#b3lyp/svp scf=(tight,noincore,xqc) Test 
#IOP(5/87=12) Density=Current Pop=(MK,readradii) iop(6/33=2) iop(6/42=6)

holoCaM-CaMKII.loop1.water2.frame495 

   0  1 
C          1.19381       89.53189      102.26143
C          0.77076       90.35914      103.43448
O         -0.19038       91.10070      103.31810
H          2.10258       88.93719      102.49584
H          0.37547       88.83700      101.98466
H          1.42575       90.20187      101.40813
N          1.44367       90.26064      104.61019
C          1.14533       91.04356      105.80166
C          1.55735       92.48859      105.54865
O          2.69866       92.83189      105.83080
C          1.93964       90.40506      106.96550
C          1.70813       90.99829      108.30689
O          0.93576       91.92323      108.46931
O          2.37370       90.48324      109.35124
H          2.21317       89.57400      104.65950
H          0.06297       90.96607      106.05349
H          3.02870       90.45829      106.75216
H          1.65240       89.33556      107.04459
N          0.71772       93.36536      104.91803
C          1.18706       94.65073      104.40823
C          1.09649       95.78323      105.41573
O          1.62138       96.85644      105.15118
C          0.49909       94.99152      103.06099
C          1.54558       95.43342      102.03041
C          2.34553       94.20003      101.53749
C          3.59791       94.57344      100.74177
N          4.66878       95.04219      101.62707
H         -0.23228       93.06097      104.67300
H          2.27754       94.53769      104.23434
H         -0.27778       95.76938      103.23059
H         -0.02828       94.11157      102.62924
H          2.18081       96.21426      102.49698
H          1.04813       95.88536      101.14535
H          1.65875       93.60365      100.89740
H          2.67014       93.52729      102.35917
H          3.35119       95.33727       99.97316
H          3.96226       93.66036      100.22117
H          4.94998       94.27015      102.27679
H          5.49994       95.30474      101.05136
H          4.37102       95.87022      102.18815
N          0.50663       95.57957      106.62213
C          0.56465       96.51572      107.73693
C          1.51762       96.01010      108.81053
O          1.78369       96.74547      109.75121
C         -0.84282       96.75833      108.32112
C         -1.57022       95.50884      108.82054
O         -1.02971       94.25875      108.71897
O         -2.68137       95.65515      109.30317
H          0.07957       94.66540      106.78483
H          0.98401       97.48941      107.39340
H         -1.46516       97.24362      107.53651
H         -0.75111       97.48586      109.15948
N          2.08565       94.77271      108.72885
C          3.05382       94.25936      109.67133
C          2.53263       94.22445      111.08596
O          3.16356       94.81579      111.94935
H          1.85430       94.15009      107.94834
H          3.97300       94.87995      109.61709
H          3.33036       93.22516      109.36795
N          1.41634       93.51300      111.40886
C          0.94776       93.34344      112.78297
C          1.14590       91.90988      113.26746
O          0.84119       91.63782      114.42014
C         -0.51384       93.82549      112.93923
C         -1.48886       93.21173      111.98155
O         -2.19036       93.91985      111.28335
O         -1.63578       91.88709      111.91875
H          0.90954       93.02200      110.65860
H          1.55621       93.95602      113.48001
H         -0.54769       94.92665      112.80119
H         -0.85873       93.59808      113.96986
N          1.66981       90.94756      112.45885
C          1.90568       89.57621      112.86415
C          0.93654       88.63305      112.19828
O          1.07881       87.43544      112.40415
H          1.90133       91.17546      111.49142
H          1.79679       89.44475      113.96135
H          2.94944       89.30347      112.59232
N         -0.11589       89.09003      111.44961
C         -1.11325       88.21015      110.87543
C         -1.40398       88.59203      109.39081
O         -2.27886       89.71429      109.32520
C         -2.39906       88.15187      111.75743
C         -2.13670       87.57698      113.16322
O         -3.01772       89.40792      111.85469
H         -0.25582       90.09514      111.32131
H         -0.70281       87.17594      110.87569
H         -3.12420       87.46057      111.27658
H         -2.62343       89.89048      112.62445
H         -1.72324       86.55025      113.09678
H         -1.42761       88.21763      113.73039
H         -3.09201       87.53969      113.73055
N         -2.06485       87.42112      108.78417
C         -2.48490       87.50016      107.37883
C         -3.94558       87.11147      107.37381
O         -4.27882       85.99228      107.74100
C         -1.63963       86.55140      106.46189
C         -0.17382       87.04616      106.38547
C         -2.25113       86.44009      105.04625
C          0.77747       86.03628      105.73669
H         -1.60146       86.50717      109.00067
H         -2.38221       88.53951      106.99664
H         -1.65552       85.53307      106.91220
H          0.21363       87.22401      107.41000
H         -0.13521       88.00872      105.82880
H         -3.28179       86.03168      105.09364
H         -2.28353       87.43201      104.54869
H         -1.68218       85.73388      104.41007
H          1.80771       86.45023      105.73283
H          0.78092       85.09221      106.32299
H          0.50326       85.81212      104.68732
N         -4.87484       88.01226      106.96781
C         -6.29922       87.73143      106.90186
C         -6.65430       87.17157      105.53620
O         -5.81111       87.11378      104.65300
C         -7.11808       89.03128      107.17980
C         -6.97372       89.53712      108.61453
O         -6.77752       90.04797      106.27419
H         -4.54285       88.92163      106.63619
H         -6.57284       86.96667      107.66226
H         -8.20075       88.83091      107.04423
H         -6.00574       90.56686      106.62060
H         -7.37606       88.79188      109.32845
H         -5.90935       89.72884      108.83747
H         -7.54099       90.48822      108.72534
N         -7.92953       86.76242      105.30028
C         -8.44668       86.39040      103.98284
C         -8.30616       87.57797      103.03988
O         -7.82993       87.42400      101.92533
C         -9.94084       85.98623      104.09215
C        -10.10323       84.67731      104.88183
O        -10.67486       87.02087      104.70247
H         -8.58470       86.78794      106.09575
H         -7.88551       85.52276      103.56667
H        -10.32877       85.81620      103.06258
H        -11.61646       86.72050      104.78126
H         -9.74453       84.78416      105.92640
H        -11.17461       84.38610      104.90857
H         -9.53690       83.86031      104.38704
N         -8.64879       88.81444      103.48938
C         -8.49085       90.07621      102.76923
C         -7.06448       90.23880      102.23888
O         -6.89773       90.42292      101.04135
C         -8.88460       91.19463      103.77193
C         -8.62787       92.65023      103.38025
C         -8.99731       93.54579      104.58147
C         -8.59354       95.00618      104.37028
N         -8.89513       95.80258      105.56188
H         -9.00209       88.86329      104.45753
H         -9.18628       90.10583      101.90121
H         -8.29942       91.02737      104.69547
H         -9.95988       91.06646      104.03295
H         -9.21512       92.93203      102.48068
H         -7.54455       92.77170      103.16636
H         -8.46103       93.18216      105.48704
H        -10.09151       93.47880      104.77633
H         -9.13429       95.42171      103.49309
H         -7.49921       95.05571      104.17369
H         -8.35180       95.44420      106.38187
H         -8.62152       96.79657      105.38988
H         -9.91780       95.76286      105.77743
N         -5.99319       90.19029      103.07620
C         -4.60549       90.38819      102.65594
C         -4.09083       89.30439      101.72384
O         -3.11712       89.56403      101.02906
C         -3.68579       90.46831      103.89583
C         -3.89301       91.79665      104.64127
C         -3.10550       91.85972      105.91568
O         -2.24697       92.71113      106.06924
O         -3.38120       91.01356      106.92110
H         -6.18230       90.03483      104.06686
H         -4.53844       91.35150      102.10210
H         -2.61926       90.41695      103.59741
H         -3.88999       89.59042      104.54691
H         -4.96211       91.95154      104.89134
H         -3.56967       92.62010      103.96652
N         -4.64181       88.06300      101.67283
C         -4.13035       87.03792      100.78815
H         -3.06049       86.83727      101.01364
H         -4.70413       86.09693      100.92248
H         -4.22814       87.36865       99.73210
H         -5.42756       87.82624      102.28754
Ca        -1.68625       92.00762      109.02261
O         -4.49186       91.58621      110.08078
H         -4.97468       91.94638      110.86439
H         -4.43711       90.61637      110.25445
O         -4.87164       93.55001      108.11061
H         -4.42912       94.42171      108.24332
H         -5.65340       93.58332      108.71611

Ca 1.0



