%chk=holoCaM.loop2.water2.frame165.chk
%nprocshared=20
%mem=10GB
%nosave
#b3lyp/svp scf=(tight,noincore,xqc) Test 
#IOP(5/87=12) Density=Current Pop=(MK,readradii) iop(6/33=2) iop(6/42=6)

holoCaM.loop2.water2.frame165 

   -2  1 
C        111.18278       66.32647      -18.58832
C        112.09534       65.34991      -17.91054
O        111.76492       64.88164      -16.83415
H        110.28937       66.52984      -17.95856
H        111.71544       67.28160      -18.77438
H        110.84320       65.89830      -19.55467
N        113.27216       64.99146      -18.49216
C        114.17706       64.00184      -17.92324
C        115.50194       64.63729      -17.55445
O        116.12679       65.25787      -18.40377
C        114.39152       62.86719      -18.93472
C        115.30435       61.82281      -18.36291
O        116.35408       61.55593      -18.92290
O        114.98325       61.20542      -17.20965
H        113.53098       65.42876      -19.39051
H        113.73581       63.54678      -17.00988
H        114.82173       63.27132      -19.87777
H        113.41711       62.39594      -19.17832
N        116.01089       64.46503      -16.29925
C        117.28856       65.00954      -15.86329
C        118.31087       63.92367      -15.53359
O        119.43327       64.28889      -15.21151
C        117.04608       65.89651      -14.63796
H        115.47258       63.91076      -15.61761
H        117.73435       65.63615      -16.66583
H        116.62061       65.29395      -13.80509
H        117.99325       66.36261      -14.29380
H        116.32760       66.70503      -14.89094
N        118.01765       62.58678      -15.57958
C        118.98692       61.54137      -15.25452
C        119.19220       60.57918      -16.42798
O        120.32958       60.45984      -16.86336
C        118.64153       60.87768      -13.89984
C        117.22267       60.42459      -13.70831
O        116.47454       60.98536      -12.73897
O        116.75113       59.52920      -14.38015
H        117.06548       62.28284      -15.82177
H        119.99039       61.98712      -15.06605
H        118.82268       61.64682      -13.11606
H        119.34206       60.03748      -13.70237
N        118.16927       59.88897      -17.01662
C        118.35461       59.00521      -18.16985
C        117.88193       57.57755      -17.94092
O        117.96271       56.78934      -18.87247
H        117.21066       60.02697      -16.67602
H        119.42000       58.96128      -18.48177
H        117.77786       59.42009      -19.02150
N        117.39606       57.16041      -16.73832
C        116.96670       55.79082      -16.44401
C        115.68413       55.33318      -17.15736
O        115.25638       54.21699      -16.89507
C        116.84698       55.60717      -14.91087
C        115.83056       56.47498      -14.21020
N        115.71350       56.39540      -12.86613
O        115.12647       57.25504      -14.83299
H        117.40532       57.83038      -15.96336
H        117.78090       55.09802      -16.75219
H        117.84031       55.83704      -14.46642
H        116.61680       54.54404      -14.68433
H        116.30680       55.75090      -12.32447
H        115.03827       56.98106      -12.36094
N        115.04088       56.08815      -18.09502
C        113.87221       55.61723      -18.83006
C        112.56414       55.69566      -18.06305
O        111.54898       55.33845      -18.64456
H        115.43522       56.99073      -18.37859
H        114.05389       54.58519      -19.20324
H        113.73524       56.26721      -19.72131
N        112.48652       56.18521      -16.79202
C        111.22778       56.37008      -16.06938
C        111.05679       57.83586      -15.68743
O        111.94886       58.63384      -15.94092
C        111.19578       55.47874      -14.79745
C        111.30876       53.98285      -15.12344
O        112.18159       55.86898      -13.87185
H        113.34943       56.47198      -16.31753
H        110.36277       56.08455      -16.70793
H        110.21169       55.60438      -14.29832
H        113.05885       55.54437      -14.19955
H        111.23214       53.39086      -14.18632
H        110.48618       53.67529      -15.80323
H        112.28143       53.75384      -15.60765
N        109.94322       58.24749      -15.01886
C        109.77649       59.59090      -14.47922
C        109.87148       59.48393      -12.97404
O        109.11602       58.73104      -12.37336
C        108.43809       60.24412      -14.95035
C        108.51758       60.53852      -16.47170
C        108.15379       61.54472      -14.16329
C        107.25756       61.17380      -17.06656
H        109.20781       57.55659      -14.80486
H        110.59639       60.25733      -14.81227
H        107.59924       59.54294      -14.74411
H        108.71003       59.58990      -17.01621
H        109.36392       61.23102      -16.66596
H        108.95533       62.29034      -14.33598
H        107.17841       61.98771      -14.44479
H        108.07590       61.34218      -13.07547
H        106.37725       60.51848      -16.90574
H        107.06097       62.17568      -16.63240
H        107.40321       61.32196      -18.15750
N        110.76511       60.26117      -12.29857
C        110.88144       60.27660      -10.85115
C        110.19007       61.51326      -10.31512
O        109.68039       62.30007      -11.09989
C        112.36077       60.17133      -10.42125
C        112.94765       58.84468      -10.83875
O        113.22594       58.57189      -12.13098
O        113.18605       57.99964       -9.99121
H        111.32741       60.94573      -12.82244
H        110.32908       59.41814      -10.40885
H        112.39841       60.23171       -9.31286
H        112.97035       61.01099      -10.82366
N        110.03597       61.69788       -8.97542
C        109.20507       62.76481       -8.43433
C        109.72447       64.15433       -8.79563
O        108.92598       64.91303       -9.32820
C        108.95723       62.57286       -6.91964
C        107.94680       63.55637       -6.37170
C        106.63141       63.58920       -6.87487
C        108.30437       64.44066       -5.33988
C        105.69927       64.49404       -6.36037
C        107.36631       65.34170       -4.82567
C        106.06591       65.36945       -5.33631
H        110.43983       61.00377       -8.32807
H        108.20185       62.65114       -8.90237
H        109.89891       62.63472       -6.34872
H        108.55229       61.55061       -6.75335
H        106.32087       62.91507       -7.66255
H        109.30688       64.43223       -4.93105
H        104.69111       64.51373       -6.75446
H        107.64735       66.01827       -4.02943
H        105.34128       66.06712       -4.93708
N        111.01159       64.58767       -8.57718
C        111.46939       65.93720       -8.90677
C        111.23565       66.36242      -10.35052
O        111.32485       67.54823      -10.63589
C        112.97697       65.88811       -8.63191
C        113.05503       64.88707       -7.50386
C        112.07429       63.81381       -7.96904
H        110.93053       66.62662       -8.21945
H        113.49483       65.41145       -9.49780
H        113.44712       66.87574       -8.43884
H        114.07246       64.51012       -7.26736
H        112.63377       65.37737       -6.59563
H        112.51304       63.14412       -8.74138
H        111.77712       63.23409       -7.08101
N        110.97584       65.44343      -11.32028
C        110.69295       65.78632      -12.70615
C        109.22228       66.12044      -12.84452
O        108.89545       67.21532      -13.27958
C        111.02987       64.59674      -13.61768
C        112.52888       64.24978      -13.59598
C        112.80487       62.95982      -14.30860
O        111.91328       62.34833      -14.87251
O        114.00036       62.37480      -14.16070
H        110.99772       64.44622      -11.06983
H        111.32317       66.64296      -13.03683
H        110.71553       64.81820      -14.65559
H        110.45829       63.71183      -13.26847
H        112.84003       64.09001      -12.54151
H        113.14354       65.07132      -14.02229
N        108.27349       65.20522      -12.49603
C        106.85721       65.45729      -12.62741
H        106.28499       64.57175      -12.27431
H        106.56905       66.33519      -12.01286
H        106.60271       65.63998      -13.69259
H        108.56030       64.29071      -12.12256
Ca       113.77631       60.22956      -13.55008
O        111.81551       61.06127      -17.56299
H        111.59295       62.02430      -17.51421
H        111.39307       60.75167      -18.40286
O        113.81196       58.89995      -18.12523
H        112.96441       58.61312      -18.54629
H        114.41265       59.09848      -18.88653

Ca 1.0



