%chk=holoCaM.loop1.water2.frame304.chk
%nprocshared=20
%mem=10GB
%nosave
#b3lyp/svp scf=(tight,noincore,xqc) Test 
#IOP(5/87=12) Density=Current Pop=(MK,readradii) iop(6/33=2) iop(6/42=6)

holoCaM.loop1.water2.frame304 

   0  1 
C         29.99894       36.81747       45.64884
C         29.76753       36.84568       44.16924
O         29.84078       35.81098       43.52275
H         30.85081       37.48345       45.90171
H         29.08819       37.18172       46.17053
H         30.22680       35.78841       45.99580
N         29.46178       38.02365       43.56707
C         29.19807       38.15229       42.14113
C         30.45506       37.80635       41.34373
O         31.49711       38.38887       41.61039
C         28.67281       39.57990       41.86605
C         28.10806       39.73474       40.49411
O         28.29216       38.77406       39.58339
O         27.50001       40.74634       40.19371
H         29.38727       38.86275       44.16493
H         28.36900       37.45506       41.87857
H         29.44848       40.35234       42.05822
H         27.82163       39.75477       42.55959
N         30.42937       36.85208       40.36187
C         31.63127       36.35867       39.68813
C         31.84778       37.03405       38.34227
O         32.82799       37.75642       38.21727
C         31.59273       34.81810       39.53222
C         31.35530       34.04361       40.84337
C         32.39547       34.29965       41.94426
C         33.82373       33.93334       41.51462
N         34.76649       34.15546       42.60869
H         29.52631       36.42745       40.12315
H         32.51816       36.61176       40.30967
H         32.53549       34.47516       39.05662
H         30.77493       34.52897       38.84284
H         31.34084       32.95672       40.60693
H         30.35145       34.30435       41.24314
H         32.11476       33.68295       42.82596
H         32.35959       35.36490       42.25458
H         34.13358       34.55864       40.65031
H         33.85823       32.86421       41.20816
H         34.74942       35.16108       42.89652
H         34.51971       33.54931       43.42428
H         35.72994       33.91315       42.28307
N         31.00697       36.84360       37.27912
C         31.22466       37.50406       35.98574
C         31.05831       39.03293       36.06952
O         31.35371       39.70025       35.08817
C         30.34176       36.88571       34.85933
C         28.86361       37.02255       35.09242
O         28.05585       36.63366       34.26528
O         28.45529       37.58987       36.23044
H         30.22169       36.18679       37.38225
H         32.27609       37.29955       35.68162
H         30.58241       35.80526       34.75837
H         30.59543       37.38393       33.89824
N         30.64324       39.65943       37.21322
C         30.63455       41.10306       37.39148
C         29.59836       41.82739       36.56549
O         29.96420       42.69825       35.78938
H         30.39216       39.10428       38.04036
H         31.65266       41.49934       37.18300
H         30.40465       41.32825       38.45627
N         28.27315       41.56225       36.73736
C         27.19856       42.31724       36.09690
C         26.26095       42.94244       37.13534
O         25.18164       43.38159       36.76166
C         26.44828       41.43949       35.07077
C         25.81052       40.20853       35.63730
O         26.10131       39.11094       35.19032
O         24.88401       40.30628       36.60435
H         28.00841       40.80990       37.38730
H         27.60299       43.16076       35.49527
H         27.16584       41.13895       34.27593
H         25.65390       42.04837       34.58765
N         26.63710       43.10208       38.44012
C         25.79864       43.76207       39.43144
C         24.69817       42.88932       40.00961
O         23.95071       43.40340       40.83046
H         27.59201       42.84692       38.72794
H         25.38229       44.69918       38.99928
H         26.43287       44.05666       40.29533
N         24.53531       41.57607       39.67043
C         23.51402       40.71576       40.27662
C         24.06065       39.33378       40.62445
O         25.16555       38.99605       40.22388
C         22.25012       40.62839       39.37068
C         21.09137       41.43683       39.95524
O         22.52826       41.11908       38.08027
H         25.14960       41.16458       38.95514
H         23.23300       41.13089       41.27089
H         21.87907       39.57596       39.32758
H         22.36444       40.39195       37.42947
H         21.36534       42.50736       40.05887
H         20.20295       41.35251       39.29407
H         20.81824       41.03216       40.95446
N         23.33421       38.49739       41.42929
C         23.80157       37.18326       41.87224
C         22.76958       36.13296       41.48453
O         21.63791       36.20889       41.94571
C         24.03188       37.16789       43.41504
C         24.97092       38.32418       43.84891
C         24.60844       35.80254       43.85099
C         25.15064       38.42973       45.36599
H         22.42298       38.82829       41.78435
H         24.77646       36.94640       41.39069
H         23.05008       37.32067       43.91707
H         24.53218       39.28994       43.51897
H         25.96643       38.21175       43.36762
H         24.70180       35.73212       44.95203
H         23.94420       34.97066       43.54588
H         25.60932       35.64257       43.39597
H         25.77401       39.31702       45.60319
H         24.16363       38.54793       45.86269
H         25.66778       37.54137       45.78012
N         23.09195       35.12550       40.62903
C         22.13861       34.10386       40.19911
C         21.95859       33.03396       41.27277
O         22.61254       33.08922       42.30463
C         22.60940       33.45156       38.86780
C         22.77939       34.48756       37.75475
O         23.82295       32.77769       39.06105
H         24.03968       35.11455       40.23370
H         21.15886       34.58739       39.98730
H         21.82923       32.73141       38.53250
H         23.87848       32.06798       38.36862
H         23.07500       33.98164       36.81182
H         21.82912       35.03527       37.58498
H         23.57433       35.21198       38.01669
N         21.11217       31.98665       41.05493
C         20.99718       30.83482       41.94879
C         22.34901       30.16305       42.10817
O         22.74003       29.85518       43.22490
C         19.98742       29.78826       41.39635
C         18.55370       30.32327       41.36252
O         20.36306       29.37393       40.10622
H         20.56751       31.98048       40.18129
H         20.63399       31.15621       42.95096
H         20.00326       28.91449       42.09220
H         19.97524       28.47123       39.96414
H         18.23351       30.62112       42.38280
H         18.46254       31.19436       40.68241
H         17.87031       29.52551       41.00023
N         23.10225       29.89105       41.00856
C         24.36867       29.17272       41.04763
C         25.40600       29.94684       41.83985
O         25.98849       29.39884       42.76523
C         24.90451       28.88459       39.61714
C         23.87204       28.28057       38.63421
C         23.08095       27.08958       39.19582
C         22.01782       26.62387       38.19073
N         21.18287       25.56826       38.76237
H         22.73415       30.19868       40.10039
H         24.19936       28.18321       41.52797
H         25.76508       28.18708       39.71856
H         25.28182       29.81817       39.14483
H         24.39962       27.98591       37.70110
H         23.14544       29.06687       38.34370
H         22.54590       27.40569       40.11544
H         23.76894       26.25480       39.44877
H         22.51137       26.25490       37.26502
H         21.36408       27.48377       37.91900
H         20.68817       25.92491       39.61291
H         20.46654       25.27964       38.05755
H         21.76894       24.74079       39.01595
N         25.67660       31.24525       41.52031
C         26.69507       32.05520       42.18784
C         26.38963       32.27445       43.66749
O         27.26321       32.75947       44.37381
C         26.85006       33.43588       41.49553
C         27.20466       33.32172       39.99956
C         27.30671       34.66529       39.33850
O         26.27981       35.53268       39.38249
O         28.30278       34.95538       38.70234
H         25.13566       31.65701       40.75389
H         27.66125       31.50880       42.10624
H         27.64852       34.01896       42.00712
H         25.89150       33.99087       41.59774
H         26.41894       32.77016       39.45380
H         28.16071       32.76700       39.87936
N         25.17834       31.96245       44.20981
C         24.88666       32.13081       45.61560
H         23.83637       31.82870       45.81963
H         25.56081       31.48711       46.21950
H         25.01544       33.19291       45.91020
H         24.42374       31.60434       43.61562
Ca        27.10239       38.46032       37.74227
O         25.80142       35.34105       36.45744
H         25.90849       35.84268       35.61154
H         26.12649       34.42879       36.25326
O         23.86843       37.56793       37.08877
H         23.49542       37.18707       36.25450
H         23.21698       38.26158       37.35437

Ca 1.0



