%chk=holoCaM.loop2.water1.frame13.chk
%nprocshared=20
%mem=10GB
%nosave
#b3lyp/svp scf=(tight,noincore,xqc) Test 
#IOP(5/87=12) Density=Current Pop=(MK,readradii) iop(6/33=2) iop(6/42=6)

holoCaM.loop2.water1.frame13 

   -2  1 
C         87.90795        4.54818       29.55244
C         88.59526        3.58693       28.63448
O         87.93101        2.77912       28.00450
H         86.83737        4.28197       29.67122
H         88.40069        4.52227       30.54677
H         87.98577        5.57524       29.13652
N         89.94646        3.64490       28.50152
C         90.72152        2.77824       27.62169
C         90.74244        1.35560       28.16210
O         91.57264        1.04107       29.00412
C         92.10511        3.40757       27.45039
C         93.10633        2.72679       26.55777
O         92.88025        2.15858       25.33879
O         94.26135        2.96973       26.83816
H         90.44208        4.36883       29.04683
H         90.26943        2.79096       26.63620
H         92.56255        3.45887       28.46688
H         92.00238        4.46759       27.12108
N         89.75962        0.47841       27.80316
C         89.61142       -0.85111       28.38864
C         90.66715       -1.84642       27.92589
O         90.85049       -2.84052       28.61494
C         88.21068       -1.39450       28.09744
H         89.03250        0.80772       27.15409
H         89.69377       -0.74513       29.49467
H         88.03279       -1.43663       27.00146
H         88.07715       -2.40713       28.53132
H         87.45517       -0.71661       28.55225
N         91.42567       -1.63706       26.81042
C         92.56546       -2.48458       26.44788
C         93.87520       -1.80572       26.81932
O         94.90806       -2.45629       26.73774
C         92.52588       -2.93511       24.96615
C         92.15617       -1.83890       24.00927
O         92.90078       -0.72438       23.93480
O         91.16810       -1.95546       23.29986
H         91.25279       -0.78935       26.25050
H         92.57409       -3.41025       27.06461
H         91.78214       -3.75211       24.85483
H         93.51772       -3.34987       24.67568
N         93.91112       -0.53853       27.31809
C         95.11105        0.07405       27.85165
C         96.18725        0.26987       26.81674
O         97.35443        0.25200       27.18003
H         93.05204        0.01564       27.37351
H         95.49221       -0.53615       28.69797
H         94.85578        1.06697       28.27447
N         95.87345        0.51974       25.51447
C         96.88377        0.75861       24.49124
C         97.30694        2.23218       24.40662
O         98.05472        2.58368       23.50487
C         96.41557        0.21038       23.12834
C         95.31384        0.96642       22.44405
N         95.10536        0.75671       21.12586
O         94.63717        1.78032       23.04766
H         94.88227        0.53080       25.23919
H         97.78451        0.15019       24.72591
H         96.11453       -0.85712       23.21342
H         97.29454        0.26173       22.45415
H         95.68858        0.08817       20.60550
H         94.39945        1.28248       20.60446
N         96.90387        3.13755       25.34163
C         97.28083        4.53864       25.36436
C         96.43166        5.43622       24.48922
O         96.65061        6.63766       24.55778
H         96.39650        2.80067       26.15771
H         98.36174        4.65421       25.13840
H         97.11974        4.90967       26.40096
N         95.45457        4.96660       23.65586
C         94.61595        5.85584       22.85173
C         93.13078        5.57640       23.10088
O         92.79777        4.60653       23.76824
C         95.01001        5.77496       21.34364
C         96.52605        5.97862       21.14887
O         94.61301        4.54746       20.79010
H         95.30960        3.95742       23.57200
H         94.78985        6.90636       23.16372
H         94.47685        6.58910       20.80600
H         95.21739        4.28393       20.04761
H         96.76085        6.02311       20.06324
H         96.87149        6.91738       21.62472
H         97.08311        5.11685       21.57933
N         92.18047        6.39434       22.56558
C         90.73975        6.18217       22.69581
C         90.21445        5.66834       21.37180
O         90.38548        6.31811       20.34936
C         90.01439        7.50303       23.11620
C         90.33195        7.85626       24.58799
C         88.48532        7.42794       22.90397
C         89.85448        9.26314       24.96052
H         92.49377        7.19099       21.99197
H         90.51257        5.41253       23.46586
H         90.38814        8.31401       22.45476
H         91.43028        7.83041       24.73704
H         89.87291        7.10982       25.27865
H         88.04201        6.61621       23.50599
H         87.97093        8.37104       23.16402
H         88.25710        7.27307       21.83229
H         90.20353        9.52370       25.97997
H         90.27416        9.99903       24.24195
H         88.74834        9.34199       24.95634
N         89.49317        4.51339       21.35498
C         88.75730        4.02568       20.20049
C         87.36117        4.63872       20.21745
O         87.02709        5.30287       21.17956
C         88.63807        2.48660       20.31080
C         89.96874        1.79044       20.41984
O         90.68453        1.73968       19.43056
O         90.30498        1.10345       21.55575
H         89.30844        4.04782       22.25081
H         89.27706        4.33026       19.26470
H         88.09049        2.07545       19.43644
H         88.05797        2.24666       21.22655
N         86.48688        4.46737       19.18893
C         85.12227        5.00543       19.19735
C         84.28869        4.43293       20.35360
O         83.72355        5.24634       21.06989
C         84.47375        4.83132       17.80488
C         83.00445        5.18671       17.75623
C         82.54370        6.48081       18.06146
C         82.07388        4.19964       17.38605
C         81.17466        6.77265       17.99848
C         80.71122        4.49545       17.32460
C         80.26048        5.78044       17.63106
H         86.81421        3.94907       18.36060
H         85.16755        6.10942       19.35488
H         84.60691        3.79622       17.45156
H         85.02631        5.46943       17.08076
H         83.23736        7.26211       18.34458
H         82.40317        3.19702       17.14320
H         80.81964        7.76813       18.23259
H         80.00625        3.72588       17.03765
H         79.20278        6.00555       17.58175
N         84.13529        3.09790       20.63778
C         83.35456        2.60987       21.77673
C         83.84307        3.10734       23.13340
O         83.09934        3.03127       24.10067
C         83.49343        1.08546       21.69137
C         83.65917        0.87959       20.20108
C         84.62446        2.00176       19.83610
H         82.30826        2.94345       21.60840
H         84.45643        0.76485       22.15475
H         82.66274        0.52138       22.16637
H         83.99136       -0.13170       19.88805
H         82.67650        1.09986       19.72147
H         85.67061        1.77166       20.13257
H         84.54268        2.15994       18.75140
N         85.09712        3.61050       23.27489
C         85.61761        4.18420       24.50893
C         85.20293        5.64564       24.59933
O         84.86182        6.10984       25.67735
C         87.13226        3.97548       24.55392
C         87.44484        2.47031       24.45798
C         88.89349        2.19738       24.49859
O         89.69840        3.11554       24.48488
O         89.30951        0.91750       24.55165
H         85.72609        3.59266       22.46051
H         85.22173        3.63923       25.39533
H         87.54690        4.37785       25.50678
H         87.61420        4.49697       23.70815
H         87.07220        2.03041       23.50803
H         86.97356        1.93974       25.30947
N         85.06400        6.38075       23.46200
C         84.44996        7.68559       23.40605
H         83.42633        7.62925       23.83435
H         85.06004        8.43569       23.94379
H         84.34641        7.99413       22.34038
H         85.33616        5.96932       22.57206
Ca        91.58264        1.64615       23.47060
O         92.47492        2.63795       21.10325
H         93.10994        3.11784       21.67411
H         92.80105        2.72561       20.17382

Ca 1.0



