%chk=holoCaM-CaMKII.loop3.water2.frame391.chk
%nprocshared=20
%mem=10GB
%nosave
#b3lyp/svp scf=(tight,noincore,xqc) Test 
#IOP(5/87=12) Density=Current Pop=(MK,readradii) iop(6/33=2) iop(6/42=6)

holoCaM-CaMKII.loop3.water2.frame391 

   0  1 
C         53.38055       91.24953       -2.46297
C         53.83641       91.80554       -1.14770
O         54.23186       91.04489       -0.27658
H         52.32440       91.54171       -2.64358
H         54.01395       91.65910       -3.27793
H         53.45355       90.14177       -2.47162
N         53.78933       93.14772       -0.93777
C         54.20684       93.79805        0.29558
C         52.98561       94.42814        0.92593
O         52.31487       95.21007        0.26513
C         55.30468       94.81748       -0.04612
C         55.90318       95.53478        1.12894
O         56.82411       96.30597        0.92560
O         55.45717       95.37578        2.39081
H         53.42529       93.74689       -1.69648
H         54.64056       93.06110        1.00339
H         54.91113       95.57648       -0.75798
H         56.13170       94.26867       -0.54806
N         52.60955       94.09402        2.19544
C         51.36035       94.55350        2.79039
C         51.22535       96.06477        2.76006
O         50.18260       96.54182        2.33442
C         51.11065       93.96088        4.20156
C         52.02802       94.43903        5.34094
C         51.58443       93.79049        6.66747
C         52.49524       94.17617        7.83981
N         52.03507       93.55774        9.08437
H         53.20572       93.44902        2.73580
H         50.53396       94.13593        2.17110
H         51.18119       92.85165        4.12842
H         50.06523       94.21221        4.48482
H         51.96151       95.54160        5.45234
H         53.07666       94.16859        5.11405
H         51.58833       92.68444        6.56551
H         50.54444       94.11035        6.89671
H         52.50191       95.28191        7.96190
H         53.53046       93.83198        7.62727
H         51.07206       93.89232        9.31866
H         52.03218       92.51573        8.99112
H         52.68236       93.82371        9.86143
N         52.24453       96.87801        3.15877
C         52.14167       98.33640        3.17240
C         53.12856       99.02611        2.22945
O         53.15371      100.24993        2.22833
C         52.25600       98.85549        4.62413
C         53.56539       98.61083        5.32235
O         54.47737       98.02019        4.77588
O         53.73220       99.05603        6.58098
H         53.12309       96.44040        3.47139
H         51.13282       98.65528        2.82936
H         51.45435       98.37825        5.22806
H         52.07339       99.95126        4.62261
N         53.91859       98.33750        1.35086
C         54.78722       99.01183        0.39303
C         56.00086       99.68463        1.01082
O         56.66122      100.42421        0.29427
H         53.84146       97.31510        1.28894
H         54.17901       99.77102       -0.14988
H         55.15804       98.29009       -0.36510
N         56.36875       99.49158        2.31398
C         57.46115      100.23965        2.93752
C         58.83823       99.94543        2.34958
O         59.76888      100.66322        2.69055
C         57.47402      100.04089        4.48061
C         58.43348       98.96522        5.03533
N         58.28664       98.74011        6.46408
O         58.53462       97.76546        4.32991
H         55.80678       98.86160        2.89462
H         57.20708      101.30950        2.75860
H         56.43761       99.91667        4.85973
H         57.85758      100.98049        4.93331
H         58.48901       99.64203        6.95094
H         59.04195       98.08032        6.75538
N         59.05997       98.88197        1.51773
C         60.36949       98.54810        0.98174
C         60.86811       97.15876        1.35844
O         61.96482       96.84024        0.92614
H         58.27541       98.27882        1.24372
H         61.13610       99.27777        1.31826
H         60.31768       98.60799       -0.12701
N         60.14601       96.26314        2.10841
C         60.64487       94.90789        2.38503
C         59.58978       93.98457        2.98007
O         58.55662       94.44940        3.43431
C         61.89824       94.92151        3.30176
C         61.63702       95.30091        4.74948
C         61.27012       94.31104        5.68178
C         61.81497       96.62095        5.19806
C         61.08693       94.63256        7.02979
C         61.62753       96.94145        6.54968
C         61.26642       95.95032        7.46945
O         61.10051       96.27307        8.76902
H         59.20094       96.51968        2.40768
H         60.91348       94.47293        1.39744
H         62.68986       95.57699        2.88744
H         62.35709       93.90917        3.30268
H         61.13850       93.28389        5.36993
H         62.10582       97.40048        4.50607
H         60.81030       93.85534        7.73230
H         61.77038       97.96081        6.88628
H         60.86257       95.61461        9.43819
N         59.80082       92.63159        2.98575
C         58.85770       91.68499        3.57809
C         59.54463       90.72257        4.53669
O         60.76022       90.60073        4.53703
C         58.10039       90.87067        2.48599
C         59.06391       90.04208        1.59577
C         57.21415       91.80497        1.64817
C         58.34005       89.04797        0.68554
H         60.64744       92.26275        2.52966
H         58.10434       92.24053        4.17353
H         57.42566       90.16020        3.00870
H         59.73478       89.43661        2.24086
H         59.69402       90.71791        0.97852
H         57.82579       92.53479        1.07811
H         56.58606       91.23243        0.93984
H         56.52487       92.36182        2.31199
H         57.73940       88.34051        1.29739
H         57.67871       89.55894       -0.04135
H         59.08982       88.46497        0.11038
N         58.76869       89.97527        5.36974
C         59.24696       88.89498        6.22460
C         58.40046       87.64905        5.95904
O         57.57147       87.67874        5.06535
C         59.16702       89.34854        7.69026
O         57.85700       89.69814        8.04937
H         57.75935       90.18030        5.39802
H         60.31327       88.65635        6.01753
H         59.81938       90.23758        7.82903
H         59.57793       88.56984        8.37384
H         57.45943       88.90626        8.49411
N         58.53066       86.52040        6.71186
C         57.68835       85.33718        6.52072
C         56.20875       85.66630        6.66517
O         55.43617       85.30224        5.78916
C         58.06391       84.24876        7.53106
H         59.23679       86.50797        7.46178
H         57.86538       84.91533        5.50558
H         57.43694       83.34527        7.36636
H         59.12814       83.96094        7.39782
H         57.91331       84.60450        8.57240
N         55.75135       86.37458        7.73683
C         54.34374       86.70549        7.95775
C         53.71600       87.38094        6.75191
O         52.69256       86.90561        6.27964
C         54.20145       87.61214        9.18773
H         56.44594       86.70317        8.42522
H         53.78105       85.76761        8.16409
H         54.74828       88.56852        9.03956
H         53.13016       87.84063        9.37561
H         54.61221       87.10448       10.08607
N         54.28664       88.48110        6.18905
C         53.72428       89.16690        5.02538
C         53.58451       88.20619        3.85694
O         52.47718       88.02618        3.36850
C         54.60286       90.37274        4.62932
C         54.60255       91.45329        5.72199
C         55.51155       92.59398        5.38026
O         56.52572       92.90917        6.20589
O         55.33113       93.25134        4.36964
H         55.16788       88.82391        6.59993
H         52.71051       89.55287        5.27915
H         54.21166       90.82599        3.69076
H         55.63632       90.02162        4.44280
H         54.93366       91.03336        6.69322
H         53.57194       91.83385        5.84590
N         54.66024       87.53032        3.37467
C         54.55705       86.57555        2.29402
H         54.19811       87.08043        1.37309
H         55.55281       86.12555        2.09276
H         53.85357       85.76197        2.57365
H         55.58017       87.68176        3.79965
Ca        56.64830       96.58682        3.87583
O         55.16438       95.82691        6.93464
H         54.70647       96.63111        7.28342
H         55.48138       95.35736        7.74674
O         58.08000       95.51992        6.72824
H         58.24064       94.63609        7.14229
H         57.89636       96.11497        7.49754

Ca 1.0



