%chk=holoCaM.loop3.water2.frame346.chk
%nprocshared=20
%mem=10GB
%nosave
#b3lyp/svp scf=(tight,noincore,xqc) Test 
#IOP(5/87=12) Density=Current Pop=(MK,readradii) iop(6/33=2) iop(6/42=6)

holoCaM.loop3.water2.frame346 

   0  1 
C         -8.25066       32.97893       95.19775
C         -9.48351       33.63947       94.65630
O        -10.38136       33.93943       95.42864
H         -7.74861       33.65585       95.91937
H         -8.53294       32.03539       95.70925
H         -7.53398       32.73461       94.38496
N         -9.58257       33.91782       93.32755
C        -10.75160       34.54299       92.71832
C        -11.89415       33.53783       92.73453
O        -11.90839       32.63535       91.90837
C        -10.35503       34.96837       91.28567
C        -11.28216       35.78406       90.42462
O        -10.88840       36.03365       89.30039
O        -12.48546       36.26788       90.80288
H         -8.77009       33.69700       92.73042
H        -11.00058       35.45441       93.30248
H        -10.10506       34.04509       90.71789
H         -9.42414       35.57234       91.36457
N        -12.82448       33.56298       93.72975
C        -13.88951       32.57310       93.83996
C        -14.85508       32.70261       92.67306
O        -14.98381       31.75891       91.90557
C        -14.60129       32.68481       95.21584
C        -13.63467       32.26779       96.34475
C        -14.27934       32.29410       97.73824
C        -13.33667       31.75241       98.83519
N        -13.02053       30.33135       98.65062
H        -12.73711       34.28318       94.46118
H        -13.44135       31.55421       93.79941
H        -15.46531       31.98466       95.23603
H        -14.98722       33.71337       95.38611
H        -12.74123       32.92696       96.36134
H        -13.30987       31.23453       96.11460
H        -15.21056       31.68805       97.74172
H        -14.54639       33.34515       97.98690
H        -13.84544       31.87304       99.81707
H        -12.39547       32.34558       98.86573
H        -12.43115       30.18184       97.80188
H        -12.47599       29.99058       99.47533
H        -13.90072       29.77082       98.57700
N        -15.58030       33.83878       92.48666
C        -16.56722       33.99695       91.41764
C        -15.97213       34.17125       90.00872
O        -16.75723       34.26958       89.07541
C        -17.57283       35.10725       91.79626
C        -16.95006       36.44880       92.01363
O        -16.42447       37.03694       91.09096
O        -16.99068       37.01869       93.23128
H        -15.48848       34.58094       93.19370
H        -17.18907       33.07464       91.38703
H        -18.06007       34.80253       92.74857
H        -18.36867       35.19236       91.02556
N        -14.62757       34.15398       89.75060
C        -14.08267       34.15211       88.39169
C        -14.19786       35.45991       87.62210
O        -13.83120       35.46641       86.45483
H        -13.96186       34.03011       90.52434
H        -14.58097       33.34209       87.81476
H        -12.99923       33.90662       88.43402
N        -14.66428       36.60700       88.19119
C        -14.80221       37.88144       87.47487
C        -13.46790       38.56880       87.13801
O        -13.49835       39.68814       86.64503
C        -15.74252       38.81924       88.27161
C        -15.15698       39.43725       89.52123
N        -15.30876       40.76136       89.75115
O        -14.58098       38.74750       90.34749
H        -14.98749       36.55726       89.16264
H        -15.35164       37.68052       86.52794
H        -16.64457       38.23172       88.54933
H        -16.09342       39.63666       87.60441
H        -15.81496       41.36223       89.08497
H        -14.94963       41.18816       90.61459
N        -12.26381       37.96057       87.35107
C        -10.97253       38.56696       87.06601
C        -10.48432       39.49472       88.16268
O         -9.39150       40.02300       88.01524
H        -12.24283       36.99431       87.67453
H        -10.99673       39.07360       86.07642
H        -10.21347       37.75688       87.00022
N        -11.21735       39.73901       89.28773
C        -10.79294       40.63889       90.35447
C        -10.87118       39.94870       91.70772
O        -11.89659       39.36150       92.02504
C        -11.71294       41.87057       90.36367
C        -11.61023       42.65301       89.07456
C        -12.71546       42.75851       88.21566
C        -10.40698       43.28807       88.71968
C        -12.62096       43.47836       87.02253
C        -10.31466       44.01220       87.52717
C        -11.42303       44.10834       86.67351
O        -11.34979       44.80206       85.51994
H        -12.14609       39.30869       89.38744
H         -9.75647       41.00755       90.19471
H        -11.44542       42.54581       91.20610
H        -12.75068       41.52650       90.52902
H        -13.64965       42.28037       88.46167
H         -9.54138       43.22799       89.36730
H        -13.48173       43.54606       86.36928
H         -9.38231       44.49803       87.26863
H        -10.54100       45.25514       85.24241
N         -9.85304       40.09071       92.60303
C         -9.91281       39.62626       93.98638
C        -10.18763       40.83323       94.86296
O         -9.49815       41.83684       94.74238
C         -8.59892       38.89289       94.38905
C         -8.45894       37.59493       93.55497
C         -8.59509       38.57422       95.90264
C         -7.16411       36.81936       93.80426
H         -9.04152       40.66803       92.33260
H        -10.74998       38.90848       94.13354
H         -7.73574       39.56369       94.18062
H         -8.48898       37.84880       92.47402
H         -9.31478       36.92679       93.77937
H         -9.44028       37.90451       96.16723
H         -7.64441       38.10113       96.21670
H         -8.67597       39.50342       96.50413
H         -7.14354       35.92407       93.14771
H         -6.28430       37.45469       93.57162
H         -7.09649       36.45763       94.84999
N        -11.17857       40.77780       95.79875
C        -11.54602       41.89270       96.65879
C        -11.08199       41.64981       98.07995
O        -10.55958       40.58317       98.37548
C        -13.07364       42.08824       96.60772
O        -13.73549       40.95848       97.12347
H        -11.67359       39.88758       95.93809
H        -11.04954       42.82341       96.30922
H        -13.38779       42.29224       95.55772
H        -13.38000       42.96911       97.20812
H        -14.19706       40.50488       96.37106
N        -11.22049       42.63029       99.01817
C        -10.80557       42.45251      100.40493
C        -11.62397       41.37418      101.08615
O        -11.11622       40.73419      101.99644
C        -10.93352       43.76130      101.18566
H        -11.62197       43.53583       98.72895
H         -9.73083       42.16123      100.41332
H        -10.31146       44.54667      100.70546
H        -11.99084       44.10174      101.20704
H        -10.57559       43.62127      102.22818
N        -12.90275       41.11435      100.68952
C        -13.70050       40.02918      101.24086
C        -13.03875       38.70423      100.92909
O        -12.77528       37.92396      101.83294
C        -15.11017       40.04462      100.62472
H        -13.32013       41.69678       99.94728
H        -13.81162       40.16160      102.33981
H        -15.61505       41.00686      100.85183
H        -15.07297       39.92882       99.51963
H        -15.72244       39.21725      101.04247
N        -12.75610       38.39461       99.63514
C        -12.20367       37.11824       99.19851
C        -10.76187       36.89927       99.65019
O        -10.25899       35.80515       99.43301
C        -12.27657       37.03990       97.66023
C        -13.73023       37.11321       97.14095
C        -13.72671       37.19763       95.64826
O        -14.29956       36.24645       94.90031
O        -13.16848       38.12722       95.09131
H        -12.99041       39.09995       98.92200
H        -12.83152       36.30160       99.61902
H        -11.82301       36.09177       97.29498
H        -11.68252       37.88637       97.25042
H        -14.26358       38.00861       97.51826
H        -14.28520       36.21194       97.48150
N        -10.02722       37.87571      100.25976
C         -8.65990       37.68827      100.70517
H         -7.99653       38.39993      100.17029
H         -8.59867       37.89217      101.79490
H         -8.28790       36.65805      100.52369
H        -10.43147       38.80689      100.41136
Ca       -13.45797       36.18459       92.81739
O        -16.67681       39.47067       94.51309
H        -16.51062       39.61439       95.47767
H        -17.66271       39.47068       94.42264
O        -14.38602       40.80641       93.22601
H        -13.80394       41.58928       93.05927
H        -15.29850       41.13102       93.01973

Ca 1.0



