%chk=holoCaM-CaMKII.loop2.water2.frame463.chk
%nprocshared=20
%mem=10GB
%nosave
#b3lyp/svp scf=(tight,noincore,xqc) Test 
#IOP(5/87=12) Density=Current Pop=(MK,readradii) iop(6/33=2) iop(6/42=6)

holoCaM-CaMKII.loop2.water2.frame463 

   -2  1 
C         69.48665       89.25164       55.09558
C         70.42355       90.42240       55.20660
O         71.55345       90.26416       55.64265
H         68.51813       89.55439       54.63676
H         69.93616       88.48205       54.43392
H         69.27870       88.82484       56.09506
N         70.00752       91.63457       54.77241
C         70.84203       92.82199       54.67309
C         71.29941       93.38128       56.02229
O         70.49235       93.58170       56.91943
C         70.05664       93.85038       53.86630
C         70.76860       95.13742       53.70400
O         71.98367       95.26980       53.08864
O         70.20750       96.12231       54.15876
H         69.04173       91.69490       54.41108
H         71.73268       92.58672       54.06291
H         69.08420       94.03962       54.37940
H         69.83655       93.44909       52.85952
N         72.61117       93.73493       56.16583
C         73.22698       94.32347       57.34584
C         73.77933       95.73849       57.06334
O         74.39461       96.29624       57.96212
C         74.37113       93.38813       57.77984
H         73.23175       93.59122       55.36503
H         72.49730       94.38516       58.18384
H         75.16336       93.35517       56.99906
H         74.82979       93.72025       58.73544
H         73.98955       92.35303       57.92234
N         73.60715       96.38466       55.85889
C         74.25490       97.67016       55.53136
C         73.61580       98.52968       54.39227
O         74.13961       99.60120       54.12323
C         75.73983       97.40515       55.19746
C         75.92512       96.43475       54.05784
O         76.86505       95.47577       54.13190
O         75.24716       96.51867       53.05276
H         73.09597       95.89292       55.12678
H         74.20201       98.32926       56.42618
H         76.27418       96.99997       56.08228
H         76.22376       98.36916       54.93670
N         72.49201       98.16731       53.71822
C         71.77984       98.96444       52.71421
C         72.50611       99.25740       51.40524
O         72.00973      100.08703       50.65654
H         72.05597       97.32065       54.01424
H         71.50624       99.92952       53.18513
H         70.82914       98.44902       52.44209
N         73.66692       98.64300       51.05338
C         74.46421       99.00173       49.87403
C         73.81367       98.74408       48.50172
O         74.46907       99.01254       47.50352
C         75.85883       98.33753       49.95933
C         75.88332       96.84251       49.81652
N         76.98523       96.25052       49.30987
O         74.92401       96.16177       50.14333
H         74.03748       97.94354       51.69825
H         74.66540      100.09160       49.92973
H         76.36092       98.60638       50.91443
H         76.49150       98.75734       49.14863
H         77.80711       96.80075       49.02651
H         77.01303       95.23900       49.17349
N         72.56083       98.22562       48.35729
C         71.92500       97.97037       47.06928
C         72.00073       96.50797       46.67694
O         71.40297       96.14015       45.67516
H         72.02667       97.97045       49.18888
H         72.40484       98.55234       46.25080
H         70.86802       98.30894       47.12668
N         72.81078       95.64420       47.35452
C         73.10488       94.28531       46.91834
C         73.13766       93.31030       48.08773
O         73.36314       93.71586       49.21755
C         74.51564       94.27732       46.26344
C         74.52112       94.91242       44.87807
O         75.43547       94.97504       47.05791
H         73.36604       96.00411       48.13909
H         72.35255       93.92106       46.18388
H         74.87153       93.23325       46.11823
H         75.51145       94.46312       47.89819
H         74.20758       95.97612       44.91544
H         75.55279       94.86240       44.46639
H         73.84636       94.34499       44.20408
N         73.06413       91.97131       47.84164
C         73.42574       90.95388       48.82295
C         74.92321       90.83257       48.83735
O         75.53196       90.63690       47.79282
C         72.71363       89.59658       48.53271
C         71.21777       89.74023       48.91415
C         73.35123       88.41803       49.30669
C         70.35194       88.53767       48.54782
H         72.93993       91.66990       46.86280
H         73.12407       91.25751       49.83830
H         72.82274       89.36869       47.45019
H         70.79721       90.62640       48.39534
H         71.12901       89.90565       50.01220
H         72.87683       87.45748       49.02280
H         74.42306       88.30514       49.04236
H         73.26557       88.55672       50.40483
H         69.29158       88.77347       48.78076
H         70.44068       88.32210       47.46378
H         70.63132       87.63864       49.13488
N         75.57138       90.87399       50.03250
C         76.99262       90.66568       50.15753
C         77.24492       89.22102       50.48442
O         76.32084       88.50750       50.83792
C         77.58661       91.58327       51.23399
C         77.15788       93.00958       51.03547
O         75.90862       93.42968       51.39712
O         77.98541       93.80829       50.64026
H         75.02224       90.92907       50.89750
H         77.48181       90.88740       49.18240
H         78.69701       91.49491       51.19588
H         77.28739       91.28357       52.25677
N         78.48209       88.70369       50.31967
C         78.79811       87.30583       50.55483
C         78.52727       86.89988       52.01053
O         77.81275       85.91987       52.17274
C         80.22488       87.03077       50.03677
C         80.73209       85.65748       50.36714
C         80.08710       84.50232       49.89450
C         81.87880       85.53201       51.16647
C         80.58182       83.23901       50.23460
C         82.36761       84.27155       51.50372
C         81.71831       83.12460       51.04202
H         79.21911       89.33037       49.96129
H         78.13165       86.67344       49.92084
H         80.92390       87.78507       50.43754
H         80.22733       87.16686       48.93101
H         79.20663       84.57759       49.26808
H         82.39232       86.41289       51.53331
H         80.08387       82.34850       49.87456
H         83.24892       84.18870       52.12541
H         82.09812       82.14833       51.30978
N         79.00005       87.55482       53.12319
C         78.71494       87.10003       54.48386
C         77.23245       87.14577       54.84755
O         76.83434       86.51468       55.81574
C         79.51565       88.05696       55.37780
C         80.62977       88.51482       54.45033
C         79.88213       88.69714       53.13560
H         79.10583       86.06141       54.55760
H         78.90649       88.96444       55.59223
H         79.84666       87.61478       56.34292
H         81.17574       89.41899       54.79523
H         81.35168       87.67695       54.32376
H         79.25831       89.61844       53.17572
H         80.59062       88.75237       52.29548
N         76.37039       87.92690       54.13983
C         74.93007       87.98112       54.37466
C         74.30043       86.71712       53.83775
O         73.47775       86.10882       54.50663
C         74.31316       89.19928       53.66973
C         74.99881       90.48596       54.15954
C         74.44571       91.71084       53.55254
O         74.95532       92.89703       53.92472
O         73.56364       91.65066       52.71802
H         76.75546       88.50818       53.38382
H         74.71251       88.12295       55.45835
H         73.22871       89.24759       53.91896
H         74.40326       89.11156       52.56593
H         76.07160       90.48303       53.90421
H         74.89753       90.57682       55.25806
N         74.72080       86.23239       52.63668
C         74.26524       84.99330       52.06082
H         73.26176       85.13074       51.61152
H         74.97624       84.68951       51.26036
H         74.25808       84.19221       52.82823
H         75.46617       86.72648       52.13748
Ca        73.78521       94.25617       52.00403
O         71.58820       95.54839       50.42903
H         71.08784       96.26005       49.97204
H         70.86636       94.95472       50.74212
O         71.09586       92.60564       50.84300
H         70.37353       91.93703       50.89597
H         71.84692       92.17966       51.30905

Ca 1.0



