%chk=holoCaM.loop1.water2.frame379.chk
%nprocshared=20
%mem=10GB
%nosave
#b3lyp/svp scf=(tight,noincore,xqc) Test 
#IOP(5/87=12) Density=Current Pop=(MK,readradii) iop(6/33=2) iop(6/42=6)

holoCaM.loop1.water2.frame379 

   0  1 
C        100.30198      107.74598       93.06910
C        100.73112      108.28674       94.40085
O        100.80393      109.49731       94.55534
H         99.28877      108.13245       92.82970
H        101.01511      108.06510       92.28283
H        100.25383      106.63590       93.07896
N        100.99810      107.43761       95.42887
C        101.31743      107.89645       96.77265
C        102.64035      108.65902       96.79794
O        103.67499      108.07798       96.50138
C        101.29425      106.68239       97.72228
C        101.45579      107.04059       99.15709
O        101.22010      106.11718      100.09525
O        101.77467      108.16274       99.48820
H        100.90472      106.42326       95.25940
H        100.49286      108.57006       97.09971
H        102.06270      105.92775       97.44596
H        100.29091      106.21283       97.62367
N        102.65642      109.99368       97.09795
C        103.85763      110.82219       97.00264
C        104.90711      110.55840       98.08031
O        106.04507      110.94599       97.85197
C        103.49197      112.32781       96.93349
C        102.76872      112.64408       95.60620
C        102.55017      114.14158       95.35161
C        101.42734      114.76680       96.18319
N        101.29750      116.18632       95.85449
H        101.75534      110.45729       97.28350
H        104.35287      110.56834       96.03848
H        104.43167      112.92219       96.94264
H        102.88501      112.62655       97.81714
H        101.80597      112.09573       95.51719
H        103.43630      112.29454       94.78919
H        102.26181      114.26043       94.28416
H        103.50438      114.68851       95.51224
H        101.62394      114.65597       97.27151
H        100.47308      114.25000       95.93772
H        100.46705      116.57710       96.34008
H        102.14783      116.70681       96.16952
H        101.15922      116.31700       94.82604
N        104.62998      109.94033       99.26562
C        105.66494      109.61303      100.25517
C        105.69023      108.12000      100.60473
O        106.48965      107.73853      101.44848
C        105.56088      110.52186      101.50630
C        104.30260      110.41540      102.30971
O        103.40818      109.66646      101.97324
O        104.16120      111.16131      103.42198
H        103.65299      109.70828       99.47951
H        106.67337      109.83800       99.84484
H        105.66852      111.58007      101.18447
H        106.41160      110.28908      102.18397
N        104.90186      107.20461       99.96245
C        104.98319      105.76713      100.20163
C        104.42666      105.29027      101.53565
O        104.50167      104.09574      101.78762
H        104.28159      107.51200       99.20301
H        106.04113      105.44554      100.09395
H        104.39367      105.24629       99.41483
N        103.82771      106.13380      102.42331
C        103.23762      105.71303      103.70131
C        102.00246      104.79981      103.58598
O        101.44825      104.46342      104.62346
C        102.91089      106.95979      104.56950
C        101.99662      107.98932      103.94659
O        101.50260      107.82694      102.70321
O        101.77896      109.02816      104.54705
H        103.81722      107.13399      102.19422
H        104.00743      105.14751      104.27346
H        103.87382      107.47584      104.77832
H        102.49133      106.63695      105.54704
N        101.53338      104.31993      102.39654
C        100.38671      103.42770      102.27986
C         99.04450      104.14128      102.26206
O         98.03987      103.45493      102.13063
H        102.04718      104.50823      101.53509
H        100.41888      102.65992      103.08462
H        100.46701      102.88488      101.31399
N         98.93381      105.49418      102.39448
C         97.65903      106.21307      102.42728
C         97.60517      107.38464      101.44881
O         98.59322      107.72564      100.81545
C         97.37630      106.72007      103.87851
C         96.61861      105.66766      104.68121
O         98.55591      107.03255      104.57884
H         99.78995      106.04361      102.53010
H         96.82464      105.54923      102.10629
H         96.70595      107.60769      103.87122
H         99.12239      107.58947      103.99389
H         96.42604      106.05326      105.70551
H         95.63469      105.47211      104.20094
H         97.19297      104.72162      104.74637
N         96.40851      108.02141      101.27563
C         96.14819      109.18001      100.42393
C         95.50782      110.27841      101.27886
O         94.62423      109.99781      102.07578
C         95.23885      108.75196       99.23030
C         95.98198      107.78331       98.26128
C         94.66511      109.94950       98.44526
C         97.16564      108.39818       97.48950
H         95.59289      107.63740      101.77923
H         97.08412      109.58748       99.99523
H         94.36295      108.20810       99.64873
H         95.25588      107.41018       97.50672
H         96.35054      106.90260       98.82816
H         95.46393      110.58777       98.02541
H         94.02353      109.58928       97.61281
H         94.02843      110.57971       99.09942
H         97.61639      107.62886       96.82795
H         96.83200      109.23332       96.83952
H         97.96543      108.76201       98.16431
N         95.88965      111.57321      101.10311
C         95.39863      112.72670      101.84564
C         94.62282      113.63287      100.90513
O         94.44965      113.30505       99.74221
C         96.60678      113.53339      102.42100
C         97.45845      112.70213      103.38297
O         97.37071      114.07624      101.36075
H         96.54828      111.77651      100.35672
H         94.73100      112.41425      102.67683
H         96.23882      114.38383      103.02919
H         98.31774      113.79066      101.42464
H         96.84082      112.31307      104.21897
H         97.91032      111.87018      102.82178
H         98.27567      113.32748      103.80455
N         94.18505      114.84210      101.34942
C         93.63990      115.86547      100.46697
C         94.67544      116.24311       99.41404
O         94.33415      116.29695       98.24037
C         93.22335      117.12199      101.27653
C         92.08829      116.80809      102.26058
O         94.32413      117.64390      101.97706
H         94.31342      115.07125      102.34276
H         92.72618      115.48399       99.95839
H         92.84889      117.87715      100.54556
H         94.11017      118.58884      102.19256
H         91.20754      116.40885      101.71510
H         92.40227      116.06540      103.02302
H         91.78464      117.73511      102.79019
N         95.96226      116.53004       99.76794
C         96.98514      116.96896       98.82063
C         97.39750      115.88965       97.80223
O         98.09004      116.23111       96.85970
C         98.19417      117.51416       99.62353
C         99.21861      118.29934       98.79362
C        100.24985      118.98181       99.70302
C        101.23766      119.82980       98.89041
N        102.15937      120.54484       99.77342
H         96.20512      116.49036      100.77060
H         96.54818      117.82760       98.26235
H         98.69442      116.68790      100.17671
H         97.78163      118.22932      100.36994
H         98.68542      119.08454       98.21433
H         99.74223      117.62489       98.09737
H        100.80698      118.21563      100.28613
H         99.71358      119.64954      100.41239
H        100.67452      120.57296       98.28271
H        101.81422      119.17540       98.19924
H        101.62451      121.18417      100.40609
H        102.71348      119.86697      100.34512
H        102.81409      121.11889       99.19465
N         96.99222      114.58616       97.90383
C         97.33157      113.53944       96.92885
C         96.08201      113.05054       96.19019
O         96.23200      112.23563       95.28798
C         97.97404      112.33485       97.66358
C         99.29137      112.64886       98.40455
C         99.56887      111.63804       99.49617
O         98.79392      111.53547      100.42287
O        100.66425      110.86994       99.53269
H         96.41331      114.31107       98.70252
H         98.02822      113.92957       96.15688
H         98.15233      111.47863       96.97520
H         97.21467      112.00985       98.38649
H         99.21659      113.63187       98.91268
H        100.12133      112.68905       97.67076
N         94.82646      113.48311       96.50896
C         93.61842      113.04773       95.83812
H         93.08835      113.93397       95.42857
H         93.82183      112.34270       95.00647
H         92.95181      112.54756       96.57273
H         94.68869      114.14665       97.27531
Ca       100.72257      109.52481      101.39181
O         98.74897      109.87774      103.70861
H         99.50359      110.16007      104.28085
H         97.96710      109.86594      104.31579
O        101.03456      112.48313      102.36579
H        101.56617      111.89783      102.96112
H        101.63256      112.66502      101.59770

Ca 1.0



