%chk=holoCaM.loop4.water3.frame153.chk
%nprocshared=20
%mem=10GB
%nosave
#b3lyp/svp scf=(tight,noincore,xqc) Test 
#IOP(5/87=12) Density=Current Pop=(MK,readradii) iop(6/33=2) iop(6/42=6)

holoCaM.loop4.water3.frame153 

   -3  1 
C         11.38841       95.00728       -1.46112
C         11.37460       94.35588       -0.11139
O         12.02134       93.32739        0.03075
H         12.44055       95.25172       -1.72783
H         10.98349       94.30836       -2.22251
H         10.79792       95.94534       -1.46987
N         10.67277       94.88950        0.93584
C         10.74883       94.32623        2.28128
C          9.77580       94.97455        3.26513
O          9.78542       96.19019        3.41095
C         12.18165       94.48216        2.82716
C         12.28708       93.89696        4.19670
O         11.99497       92.72598        4.38155
O         12.67012       94.67234        5.22842
H         10.09339       95.72740        0.77243
H         10.51148       93.24653        2.22231
H         12.46067       95.55785        2.85761
H         12.91280       93.95758        2.18283
N          8.97018       94.18499        4.04231
C          8.07395       94.68127        5.08666
C          8.39678       94.14214        6.49232
O          7.77967       94.64255        7.41945
C          6.58018       94.35837        4.74231
C          6.36061       92.83740        4.49950
C          6.11960       95.19995        3.54188
C          4.90406       92.42177        4.29355
H          9.01709       93.17008        3.89763
H          8.17947       95.78592        5.17085
H          5.95223       94.67169        5.60620
H          6.74785       92.26398        5.36882
H          6.91452       92.52267        3.59931
H          5.03616       95.06070        3.35113
H          6.26636       96.27881        3.76329
H          6.68866       94.93772        2.62609
H          4.46646       92.89948        3.39409
H          4.86088       91.32209        4.13507
H          4.29909       92.67620        5.18776
N          9.27373       93.11424        6.74299
C          9.44792       92.54768        8.09464
C         10.89758       92.44721        8.57835
O         11.08756       92.08837        9.73508
C          8.76509       91.16841        8.16233
C          9.26904       90.22807        7.10908
O         10.57255       89.91487        7.04977
O          8.49700       89.76018        6.28928
H          9.74610       92.65227        5.95649
H          8.93630       93.18623        8.84564
H          7.67086       91.30521        8.02136
H          8.92065       90.71598        9.16625
N         11.96393       92.73275        7.78872
C         13.34464       92.67547        8.24615
C         13.78429       91.28638        8.67019
O         14.24258       91.13518        9.79316
H         11.80038       93.02916        6.82360
H         13.48476       93.39339        9.08479
H         14.01053       93.00171        7.41984
N         13.70844       90.23365        7.80481
C         14.22491       88.89342        8.10159
C         15.30246       88.46266        7.09829
O         15.74092       87.32168        7.15777
C         13.07273       87.86516        8.19251
C         12.28701       87.60982        6.93692
O         12.51592       88.21522        5.90489
O         11.29448       86.70116        6.96315
H         13.28266       90.39814        6.88191
H         14.70348       88.87508        9.10535
H         12.36394       88.19872        8.98127
H         13.50142       86.89193        8.51607
N         15.81826       89.33708        6.18619
C         16.87882       89.01622        5.24187
C         16.45845       88.17314        4.04871
O         17.30271       87.96796        3.18850
H         15.51936       90.31762        6.21460
H         17.73303       88.54871        5.77697
H         17.24261       89.97499        4.81032
N         15.19690       87.67605        3.89505
C         14.75495       86.94618        2.70615
C         13.53613       87.67908        2.10869
O         12.52502       87.61829        3.06961
C         14.36393       85.49403        3.06251
C         15.49178       84.71418        3.73884
C         15.06445       83.28311        3.94348
N         14.92532       82.76711        5.18626
O         14.83153       82.58182        2.96967
H         14.51001       87.82955        4.63900
H         15.56236       86.91117        1.94314
H         14.07107       84.97736        2.12184
H         13.49028       85.48178        3.75222
H         15.72196       85.19429        4.71529
H         16.40854       84.73203        3.11243
H         15.10208       83.34164        6.02269
H         14.62478       81.78895        5.31177
N         13.06304       87.07568        0.84733
C         12.02901       87.89017        0.15808
C         10.77061       87.04131        0.02211
O         10.79207       86.05498       -0.70136
C         12.51754       88.39818       -1.24457
C         11.41544       89.13777       -2.02228
C         13.72438       89.34252       -1.12380
H         13.86765       86.85437        0.21687
H         11.77599       88.78770        0.76116
H         12.82031       87.51763       -1.85360
H         11.79292       89.45501       -3.01823
H         10.54989       88.47453       -2.20607
H         11.08140       90.04074       -1.47168
H         14.07219       89.64620       -2.13530
H         13.44068       90.26081       -0.57103
H         14.57695       88.85896       -0.60778
N          9.63311       87.36614        0.70691
C          8.37514       86.62052        0.58674
C          7.74091       86.87686       -0.77718
O          8.25927       87.68793       -1.52412
C          7.42313       87.06842        1.72919
C          6.12710       86.30556        1.84106
N          6.12393       84.96788        2.04560
O          5.06616       86.90665        1.77171
H          9.67221       88.16466        1.35769
H          8.59562       85.53889        0.71626
H          7.20822       88.15475        1.61846
H          7.94498       86.91509        2.69054
H          7.00628       84.44250        2.12215
H          5.23347       84.45539        2.12941
N          6.61072       86.22898       -1.17638
C          5.91454       86.55378       -2.41952
C          5.35594       87.97502       -2.37171
O          5.57203       88.72489       -3.31352
C          4.83271       85.50441       -2.76712
C          3.67601       85.38017       -1.80697
C          2.52277       86.16166       -1.98574
C          3.71212       84.44003       -0.76349
C          1.42943       86.01281       -1.12767
C          2.62212       84.29971        0.09915
C          1.47811       85.08390       -0.07832
O          0.43309       84.93320        0.75969
H          6.23523       85.48321       -0.57963
H          6.63863       86.48021       -3.26329
H          5.32615       84.51184       -2.86291
H          4.42778       85.72096       -3.78068
H          2.46789       86.88110       -2.79351
H          4.58176       83.81173       -0.61784
H          0.54722       86.62204       -1.27792
H          2.66512       83.57460        0.90199
H         -0.37717       85.45472        0.66991
N          4.67495       88.42714       -1.27322
C          4.12064       89.78286       -1.14388
C          5.17041       90.89152       -1.19225
O          4.78308       92.05237       -1.20145
C          3.36468       89.95437        0.19615
C          2.16605       89.01672        0.35238
C          1.47059       89.27027        1.65789
O          0.30381       89.62759        1.67417
O          2.13098       89.09788        2.81948
H          4.54425       87.76596       -0.49822
H          3.41189       89.94424       -1.98596
H          2.97733       90.99656        0.26081
H          4.07771       89.79664        1.03733
H          2.49641       87.96247        0.34661
H          1.46070       89.18314       -0.49144
N          6.50171       90.62704       -1.22636
C          7.53285       91.64984       -1.27780
C          8.08495       91.69505       -2.68570
O          8.07504       92.76099       -3.28470
C          8.61141       91.33791       -0.23199
C          8.03280       91.35312        1.19334
C          9.06067       90.95790        2.20439
O         10.32338       90.73194        1.81925
O          8.74230       90.76719        3.36676
H          6.82143       89.65461       -1.22288
H          7.12400       92.65902       -1.04606
H          9.43177       92.08464       -0.30355
H          9.03099       90.32758       -0.43532
H          7.20841       90.61203        1.25931
H          7.63756       92.36096        1.43496
N          8.51237       90.56025       -3.30549
C          8.94366       90.50943       -4.68545
H          9.96908       90.09206       -4.73796
H          8.25665       89.84303       -5.25068
H          8.93455       91.50781       -5.16872
H          8.48871       89.67101       -2.79818
Ca        11.62198       89.64807        3.22552
O          9.72370       87.83296        4.12734
H         10.27663       87.18375        4.62582
H          8.87532       87.88030        4.63179
O         13.83457       91.08829        1.82589
H         14.35953       91.92639        1.84525
H         12.91902       91.37918        1.58944
O         14.65781       91.84449        4.47578
H         14.13885       91.93190        5.31258
H         15.43670       92.43798        4.61072

Ca 1.0



