%chk=holoCaM.loop4.water3.frame141.chk
%nprocshared=20
%mem=10GB
%nosave
#b3lyp/svp scf=(tight,noincore,xqc) Test 
#IOP(5/87=12) Density=Current Pop=(MK,readradii) iop(6/33=2) iop(6/42=6)

holoCaM.loop4.water3.frame141 

   -3  1 
C         34.35537       99.17052        7.45483
C         33.05343       99.08360        8.19426
O         32.20263       98.29725        7.80499
H         35.18158       98.89304        8.14588
H         34.37159       98.46132        6.59905
H         34.52158      100.20062        7.08215
N         32.85500       99.83582        9.31278
C         31.71070       99.67396       10.20040
C         30.97321      100.98016       10.45094
O         31.60535      101.94119       10.87252
C         32.23862       99.13726       11.54018
C         31.11822       98.91839       12.50631
O         30.21977       98.14050       12.23085
O         31.08815       99.60188       13.66469
H         33.60350      100.48502        9.60410
H         31.00003       98.92075        9.79735
H         32.96594       99.85861       11.97555
H         32.76733       98.17361       11.37772
N         29.61257      101.05065       10.31513
C         28.82576      102.21730       10.71162
C         27.84580      101.91451       11.85736
O         27.20178      102.85249       12.30037
C         28.08967      102.85903        9.49513
C         26.99019      101.94315        8.89489
C         29.11962      103.29120        8.43313
C         26.09454      102.66440        7.88275
H         29.10978      100.22698        9.96017
H         29.50432      103.00112       11.11454
H         27.58915      103.77794        9.87372
H         26.32100      101.58135        9.70320
H         27.44270      101.06005        8.41476
H         29.87836      103.96168        8.89010
H         29.64053      102.40802        8.00472
H         28.64435      103.85571        7.60722
H         25.58356      103.52050        8.37385
H         26.66587      103.03403        7.00845
H         25.31962      101.96372        7.50648
N         27.67112      100.65959       12.38922
C         26.73133      100.37538       13.47975
C         27.44998       99.85008       14.73373
O         27.30149      100.48785       15.76844
C         25.53690       99.52333       12.98193
C         25.85900       98.28316       12.20040
O         26.52615       97.26829       12.76051
O         25.45588       98.16960       11.05390
H         28.20062       99.86679       12.00779
H         26.23507      101.31405       13.81446
H         24.93726      100.17373       12.30467
H         24.88551       99.26104       13.84337
N         28.26946       98.75554       14.73513
C         29.03322       98.31409       15.91092
C         28.82872       96.85253       16.29724
O         29.51037       96.38564       17.19735
H         28.42186       98.25286       13.85398
H         28.81609       98.94192       16.80107
H         30.10975       98.43423       15.67602
N         27.91607       96.07202       15.66381
C         27.65672       94.65051       15.94181
C         28.81355       93.67639       15.62781
O         28.62946       92.48760       15.85415
C         26.44576       94.20755       15.08583
C         26.73577       94.38306       13.62119
O         27.90927       94.92945       13.23737
O         25.90497       94.06144       12.79213
H         27.32584       96.53707       14.96569
H         27.38994       94.54412       17.01476
H         25.55660       94.82233       15.34218
H         26.20024       93.14251       15.28558
N         29.99922       94.07020       15.08321
C         31.06370       93.13709       14.73057
C         30.73601       92.27378       13.51911
O         30.82090       91.05890       13.61975
H         30.17644       95.06864       14.92300
H         31.33054       92.51354       15.61356
H         31.96977       93.71802       14.45911
N         30.43040       92.85634       12.31914
C         30.28084       92.14801       11.04072
C         30.09132       93.18096        9.87667
O         28.77479       93.58507        9.68236
C         29.19138       91.03966       11.07007
C         27.83008       91.48142       11.65123
C         26.79866       90.37716       11.64909
N         25.56607       90.60959       12.15656
O         27.06119       89.27506       11.18896
H         30.37585       93.88142       12.30434
H         31.25303       91.64432       10.84199
H         29.55218       90.20157       11.70311
H         29.06882       90.63629       10.04090
H         27.40191       92.32174       11.07923
H         27.97944       91.81133       12.70154
H         25.32428       91.52939       12.55129
H         24.84968       89.86868       12.15680
N         30.68006       92.78075        8.59559
C         30.41782       93.80658        7.54665
C         29.17579       93.41018        6.75406
O         29.11282       92.27012        6.31476
C         31.66892       94.04978        6.65538
C         32.15117       92.79796        5.91075
C         31.41786       95.20258        5.66971
H         31.70677       92.70719        8.78061
H         30.23599       94.79917        8.01493
H         32.49340       94.37607        7.32938
H         32.38344       91.98128        6.62551
H         31.39137       92.44203        5.18649
H         33.08262       93.03335        5.35315
H         30.61553       94.94244        4.94772
H         31.11497       96.11976        6.22039
H         32.34543       95.43458        5.10583
N         28.15055       94.29585        6.52668
C         26.91488       93.90879        5.83892
C         26.83943       94.48130        4.42919
O         27.74354       95.18712        4.00607
C         25.67503       94.23907        6.71466
C         25.15180       95.65548        6.59904
N         25.18207       96.52397        7.63254
O         24.63517       96.00520        5.55210
H         28.24818       95.27036        6.84774
H         26.90944       92.80447        5.71654
H         25.91070       93.96684        7.76286
H         24.82598       93.59012        6.40856
H         25.61255       96.27586        8.52417
H         24.77947       97.46752        7.53231
N         25.77863       94.16500        3.63445
C         25.64604       94.55794        2.23458
C         25.67617       96.07394        2.02456
O         26.55061       96.54495        1.31129
C         24.39084       93.90111        1.57940
C         23.04665       94.29590        2.16610
C         22.30289       95.33776        1.58271
C         22.51463       93.63060        3.28809
C         21.07920       95.73208        2.13257
C         21.28649       94.02146        3.83025
C         20.56944       95.07777        3.26210
O         19.39490       95.45326        3.80771
H         25.06124       93.55723        4.04369
H         26.52099       94.13476        1.69112
H         24.48112       92.79347        1.62581
H         24.39938       94.15255        0.49650
H         22.68499       95.86347        0.71683
H         23.03899       92.80486        3.74864
H         20.53192       96.55086        1.68322
H         20.89337       93.50388        4.69685
H         18.87355       96.18738        3.45263
N         24.73503       96.89232        2.57089
C         24.66620       98.33436        2.33172
C         25.85008       99.04299        2.97233
O         26.51129       99.83282        2.31391
C         23.31139       98.86638        2.84800
C         23.06440      100.33378        2.47325
C         21.65028      100.72820        2.79718
O         20.89841      101.09629        1.90787
O         21.19948      100.66590        4.06437
H         24.00847       96.46765        3.16077
H         24.66201       98.51890        1.23333
H         23.21679       98.72275        3.94689
H         22.51924       98.26421        2.34959
H         23.22668      100.46543        1.38009
H         23.77123      100.99425        3.01794
N         26.20477       98.73461        4.24983
C         27.35780       99.27574        4.97316
C         28.66357       99.16309        4.20129
O         29.55958       99.95135        4.47518
C         27.45045       98.52922        6.32275
C         28.70993       98.74221        7.16523
C         28.54415       97.99858        8.45954
O         29.28677       97.07680        8.74244
O         27.55238       98.33013        9.30461
H         25.62467       98.03411        4.72765
H         27.18474      100.36116        5.15016
H         27.40758       97.43621        6.11669
H         26.55342       98.81925        6.91023
H         28.88991       99.81360        7.36812
H         29.59219       98.34243        6.61949
N         28.85731       98.23573        3.22745
C         30.08885       98.17549        2.47236
H         30.94696       98.00025        3.15559
H         30.04012       97.34944        1.73302
H         30.24033       99.13247        1.92709
H         28.11932       97.55583        3.01095
Ca        28.54643       95.21192       11.15995
O         26.03063       94.64384       10.20233
H         25.05302       94.50288       10.18820
H         26.13701       95.55688       10.57171
O         31.75968       95.91065       10.11743
H         32.41055       95.21042        9.86513
H         31.59789       96.40037        9.27696
O         31.65750       95.91435       12.98046
H         32.51879       95.56061       12.64746
H         31.89032       96.42293       13.79640

Ca 1.0



