%chk=holoCaM-CaMKII.loop4.water2.frame215.chk
%nprocshared=20
%mem=10GB
%nosave
#b3lyp/svp scf=(tight,noincore,xqc) Test 
#IOP(5/87=12) Density=Current Pop=(MK,readradii) iop(6/33=2) iop(6/42=6)

holoCaM-CaMKII.loop4.water2.frame215 

   -3  1 
C         28.47939       73.98560       28.09683
C         28.58747       74.41201       26.66654
O         29.16182       73.70143       25.85511
H         27.44698       74.14921       28.47328
H         28.75634       72.92030       28.22401
H         29.17247       74.61576       28.69355
N         28.03372       75.59007       26.29230
C         28.15917       76.15387       24.96282
C         29.59254       76.65078       24.73729
O         30.17646       77.25350       25.62513
C         27.13893       77.28539       24.82099
C         27.16193       77.92001       23.48299
O         27.57076       77.32623       22.49902
O         27.07381       79.25031       23.46162
H         27.47581       76.10316       26.99309
H         27.87175       75.38520       24.20540
H         27.34176       78.08314       25.56533
H         26.11033       76.90439       25.01044
N         30.20227       76.42293       23.54590
C         31.59275       76.71852       23.21174
C         31.67729       77.75401       22.09313
O         32.58735       78.57025       22.12992
C         32.35435       75.40577       22.79889
C         32.09308       74.26458       23.82699
C         33.86315       75.65920       22.62343
C         32.81130       72.94264       23.55323
H         29.62679       75.99278       22.84270
H         32.09123       77.14985       24.10070
H         31.97241       75.08336       21.80266
H         31.00564       74.04326       23.82847
H         32.38516       74.59071       24.84778
H         34.38018       75.72840       23.60433
H         34.32020       74.83372       22.03997
H         34.04704       76.58280       22.04199
H         33.87632       73.01429       23.85893
H         32.34596       72.14734       24.17660
H         32.73416       72.65069       22.48503
N         30.76896       77.79874       21.07523
C         30.86374       78.77237       19.98737
C         30.04833       80.02811       20.20644
O         30.35122       81.02728       19.56748
C         30.66501       78.13822       18.61434
C         29.41277       77.36602       18.39148
O         28.47425       77.18887       19.34438
O         29.24787       76.89653       17.28038
H         29.98468       77.13991       21.09112
H         31.89539       79.17121       19.96449
H         31.51230       77.44829       18.41936
H         30.66176       78.94622       17.85755
N         29.05430       80.08956       21.12219
C         28.43452       81.33992       21.52348
C         27.11304       81.55549       20.82729
O         26.94224       82.58169       20.18702
H         28.75545       79.22333       21.57812
H         29.11773       82.19899       21.33973
H         28.29753       81.32547       22.62937
N         26.13587       80.61181       20.90967
C         24.77386       80.73737       20.38498
C         23.69965       80.39479       21.42703
O         22.53211       80.54200       21.09609
C         24.57277       79.83542       19.15160
C         24.93537       78.41816       19.37607
O         25.17169       77.73515       18.40405
O         25.17329       77.93439       20.59920
H         26.39375       79.73813       21.36248
H         24.59944       81.77983       20.04529
H         25.20910       80.17481       18.30799
H         23.51884       79.86857       18.79860
N         23.98113       79.94437       22.68692
C         22.94692       79.65828       23.67007
C         22.27956       78.31807       23.48705
O         21.25573       78.07634       24.10970
H         24.94426       79.84664       22.99724
H         22.19278       80.46232       23.62535
H         23.40120       79.63659       24.68730
N         22.84389       77.37205       22.70213
C         22.39644       76.00558       22.61259
C         23.58167       75.08145       22.95789
O         24.68077       75.26575       22.11621
C         21.68686       75.72751       21.25744
C         20.18468       76.08493       21.34687
C         19.39348       75.32945       20.32016
N         19.22702       75.82983       19.08212
O         18.90623       74.24474       20.60978
H         23.71406       77.59118       22.22935
H         21.68454       75.77582       23.42770
H         21.71565       74.63501       21.08089
H         22.18528       76.21237       20.38492
H         19.97672       77.17655       21.28342
H         19.80762       75.71824       22.32688
H         19.60347       76.75864       18.84826
H         18.71076       75.29132       18.37225
N         23.15604       73.68269       22.99381
C         24.18601       72.68186       23.31293
C         24.05100       71.61609       22.24555
O         23.01256       70.97607       22.15442
C         24.07228       72.11294       24.76832
C         25.09431       70.98943       25.00028
C         24.31595       73.19582       25.83837
H         22.22483       73.51930       23.44248
H         25.20362       73.12343       23.23190
H         23.05866       71.68513       24.92587
H         26.10876       71.33289       24.71459
H         25.11965       70.69695       26.07362
H         24.82124       70.09216       24.40553
H         23.54450       73.98641       25.79140
H         24.26360       72.75388       26.86304
H         25.31927       73.65713       25.70982
N         25.08274       71.39543       21.38619
C         25.11258       70.38505       20.35500
C         25.75774       69.13698       20.92282
O         26.32378       69.17733       22.00502
C         25.92425       70.92581       19.14238
C         25.94905       69.95888       17.99085
N         24.82023       69.68372       17.31277
O         26.98894       69.41771       17.65854
H         25.94712       71.90038       21.52612
H         24.07300       70.14627       20.04889
H         26.97031       71.15213       19.46252
H         25.47264       71.87394       18.78587
H         23.95327       70.19750       17.52026
H         24.83175       68.97290       16.56833
N         25.66005       67.96331       20.25079
C         26.25555       66.71637       20.72318
C         27.79372       66.77896       20.74028
O         28.42353       66.07317       21.51412
C         25.68667       65.56078       19.86467
C         25.94911       64.20282       20.45016
C         24.94512       63.55354       21.19183
C         27.18473       63.56995       20.26420
C         25.20493       62.32409       21.80330
C         27.42397       62.32009       20.83609
C         26.45056       61.71057       21.63603
O         26.71382       60.54170       22.25017
H         25.07596       67.95324       19.40172
H         25.90148       66.58389       21.76829
H         26.01400       65.61286       18.80303
H         24.58358       65.71177       19.85297
H         23.97144       64.01214       21.31966
H         27.95934       64.03877       19.67198
H         24.44196       61.85482       22.41252
H         28.37052       61.82496       20.67061
H         27.59613       60.14418       22.20918
N         28.44649       67.63791       19.91570
C         29.88096       67.90650       19.86620
C         30.34190       68.56662       21.16820
O         31.42487       68.28764       21.66717
C         30.13365       68.80528       18.62188
C         31.61985       69.01633       18.38427
C         31.90836       69.63739       17.04826
O         32.32935       70.91286       16.97181
O         31.83158       68.96480       16.03087
H         27.86502       68.15566       19.26761
H         30.42929       66.95361       19.70844
H         29.61973       69.79347       18.71614
H         29.69807       68.29405       17.73268
H         32.13978       68.03576       18.41591
H         31.97592       69.67376       19.20155
N         29.50097       69.44685       21.76826
C         29.67370       70.09155       23.06237
C         29.27118       69.14944       24.21980
O         29.62631       69.42628       25.35689
C         28.75506       71.35851       23.06147
C         29.10332       72.27808       21.85311
C         28.39795       73.58858       21.68242
O         29.05459       74.54895       21.35820
O         27.08355       73.74672       21.70538
H         28.63229       69.65198       21.26674
H         30.73016       70.43349       23.17972
H         28.85194       71.90580       24.01641
H         27.70263       71.01673       22.97013
H         28.94891       71.76278       20.88602
H         30.18123       72.51943       21.91767
N         28.46080       68.06591       24.00802
C         27.82537       67.28084       25.05748
H         26.79586       67.00107       24.72679
H         28.36916       66.33227       25.24629
H         27.69885       67.86152       25.99428
H         28.14866       67.86857       23.05850
Ca        26.41617       75.62439       20.73986
O         27.56058       74.45402       18.32715
H         28.24800       75.04953       17.97325
H         27.46998       73.81224       17.58680
O         24.42680       74.80644       19.04392
H         23.45123       74.87702       18.93206
H         24.75743       75.58211       18.54449

Ca 1.0



