%chk=holoCaM.loop1.water2.frame260.chk
%nprocshared=20
%mem=10GB
%nosave
#b3lyp/svp scf=(tight,noincore,xqc) Test 
#IOP(5/87=12) Density=Current Pop=(MK,readradii) iop(6/33=2) iop(6/42=6)

holoCaM.loop1.water2.frame260 

   0  1 
C         51.92749       22.00992       57.34214
C         51.34028       22.52565       56.06737
O         52.07748       22.67619       55.10306
H         52.73992       22.69508       57.66336
H         51.16519       21.95956       58.14684
H         52.34714       20.99629       57.17519
N         50.01295       22.81933       55.97744
C         49.44270       23.38680       54.76940
C         49.73462       24.87484       54.77524
O         49.37777       25.53170       55.74492
C         47.93595       23.08547       54.67383
C         47.41073       23.40736       53.30299
O         48.25031       23.85495       52.34624
O         46.23710       23.20775       53.03961
H         49.40195       22.66823       56.79544
H         49.90811       22.87772       53.89718
H         47.37153       23.63965       55.45466
H         47.77483       21.99527       54.82863
N         50.41855       25.46599       53.75370
C         50.94213       26.82620       53.83782
C         50.20236       27.81216       52.94754
O         50.25849       28.99585       53.25313
C         52.44895       26.76431       53.51644
C         53.23986       28.06840       53.68571
C         53.30937       28.53345       55.14632
C         54.23283       29.75012       55.28220
N         54.34226       30.17107       56.67797
H         50.65034       24.90513       52.92224
H         50.80501       27.19348       54.87728
H         52.55802       26.42727       52.46153
H         52.92033       25.99126       54.16376
H         52.82307       28.86779       53.03756
H         54.27632       27.85965       53.34095
H         53.71446       27.70688       55.77087
H         52.29659       28.79935       55.51587
H         53.83553       30.59046       54.67076
H         55.24628       29.48784       54.90341
H         54.73538       29.39362       57.25729
H         54.98571       30.99302       56.73677
H         53.40297       30.44615       57.04605
N         49.45326       27.42044       51.87508
C         48.62908       28.35228       51.10518
C         47.13603       28.05699       51.28445
O         46.32915       28.80118       50.74556
C         49.12827       28.46500       49.65026
C         49.16925       27.17646       48.89508
O         48.03394       26.51292       48.62373
O         50.23584       26.75225       48.47971
H         49.43282       26.42572       51.60724
H         48.73877       29.38437       51.50452
H         50.16210       28.87840       49.68524
H         48.50173       29.19148       49.08922
N         46.69803       27.09465       52.15395
C         45.32933       27.02230       52.64620
C         44.28377       26.58194       51.64976
O         43.35030       27.32970       51.39831
H         47.37617       26.48409       52.62997
H         45.05974       28.01461       53.06837
H         45.29517       26.29316       53.48578
N         44.33067       25.33236       51.11974
C         43.27560       24.73843       50.29701
C         42.73891       23.45319       50.94430
O         41.98692       22.74478       50.28938
C         43.80088       24.50765       48.85900
C         45.08323       23.75257       48.85753
O         45.13997       22.63832       49.33653
O         46.21708       24.37648       48.51476
H         45.14635       24.74611       51.34756
H         42.40524       25.42134       50.18576
H         43.99538       25.50290       48.40501
H         43.04425       23.98866       48.23219
N         43.01998       23.11865       52.24353
C         42.48343       21.92668       52.89057
C         43.20850       20.64489       52.52221
O         42.77983       19.59728       52.99059
H         43.56067       23.76376       52.83566
H         41.39481       21.84854       52.67271
H         42.58990       22.03187       53.99162
N         44.30374       20.62975       51.70867
C         45.03139       19.41528       51.34326
C         46.54850       19.61158       51.42643
O         47.01616       20.72004       51.66014
C         44.61117       18.95622       49.91965
C         43.15509       18.48943       49.87925
O         44.76358       19.99273       48.99006
H         44.63105       21.51666       51.31384
H         44.78334       18.59429       52.05255
H         45.21501       18.07612       49.60362
H         45.73112       20.06475       48.80232
H         43.00825       17.63699       50.57630
H         42.45993       19.31044       50.15212
H         42.90286       18.14789       48.85258
N         47.37708       18.54381       51.24485
C         48.83862       18.58739       51.26594
C         49.37459       18.10502       49.92083
O         48.99000       17.04078       49.45266
C         49.38733       17.74243       52.46374
C         49.10199       18.50531       53.78997
C         50.90078       17.45948       52.32314
C         49.54908       17.77490       55.05965
H         46.94416       17.61952       51.08631
H         49.21027       19.62531       51.41761
H         48.87594       16.75441       52.47118
H         48.01122       18.69327       53.87792
H         49.61944       19.49188       53.76730
H         51.48442       18.40025       52.31488
H         51.26853       16.81190       53.14311
H         51.11218       16.89247       51.39339
H         49.28628       18.38926       55.94708
H         49.04144       16.79192       55.14010
H         50.64854       17.63056       55.08607
N         50.34706       18.82632       49.29582
C         51.01624       18.45795       48.04875
C         52.44867       18.04433       48.33369
O         52.83211       17.94701       49.49115
C         50.96933       19.64894       47.04636
C         49.57854       19.81569       46.43421
O         51.43658       20.83688       47.64085
H         50.69497       19.66826       49.77837
H         50.54168       17.57075       47.57359
H         51.61256       19.46057       46.16593
H         50.69777       21.22515       48.17712
H         48.82060       19.93635       47.22225
H         49.56727       20.69034       45.74856
H         49.32048       18.90801       45.84718
N         53.28913       17.74218       47.30569
C         54.66760       17.30096       47.47182
C         55.49275       18.32822       48.23985
O         56.10127       17.94833       49.22869
C         55.29642       16.99737       46.08788
C         56.68858       16.37242       46.21404
O         54.47074       16.09335       45.39515
H         52.92270       17.80536       46.34490
H         54.65669       16.34489       48.04484
H         55.37064       17.95692       45.52176
H         54.52939       16.32153       44.43035
H         57.38611       17.05129       46.74575
H         56.62493       15.40964       46.76643
H         57.09856       16.17007       45.20193
N         55.58191       19.63643       47.84445
C         56.42009       20.60350       48.56231
C         55.95939       20.90327       49.99333
O         56.68782       21.59889       50.68886
C         56.58531       21.93107       47.78649
C         55.30242       22.77978       47.67200
C         55.59285       24.20913       47.17902
C         56.19597       24.27748       45.76851
N         56.47867       25.66427       45.39680
H         55.08800       19.92888       46.98860
H         57.43843       20.15760       48.62182
H         56.99106       21.71165       46.77655
H         57.34721       22.53198       48.33137
H         54.85580       22.89891       48.67983
H         54.55631       22.27727       47.02042
H         56.29106       24.69443       47.89683
H         54.64116       24.78435       47.18944
H         55.48356       23.83252       45.03971
H         57.14742       23.70654       45.72847
H         55.60022       26.23137       45.41020
H         57.17327       26.07741       46.06190
H         56.88472       25.68620       44.43373
N         54.78905       20.42414       50.50678
C         54.34397       20.67118       51.87752
C         54.46138       19.41868       52.73444
O         54.34156       19.53698       53.94636
C         52.87513       21.13914       51.87840
C         52.66142       22.48180       51.16733
C         51.20408       22.83932       51.03071
O         50.32547       22.08718       51.42350
O         50.86301       23.99899       50.43909
H         54.18861       19.84588       49.91309
H         54.99085       21.43697       52.36025
H         52.50072       21.23106       52.92099
H         52.27749       20.35739       51.36555
H         53.08235       22.43858       50.14404
H         53.18076       23.27896       51.74223
N         54.68623       18.18762       52.19626
C         54.83873       17.00211       53.00677
H         55.74488       17.09899       53.64089
H         53.94295       16.85549       53.64532
H         54.95871       16.11341       52.35012
H         54.73605       18.06524       51.18214
Ca        47.60641       24.25215       50.25205
O         47.58517       22.05049       47.91323
H         47.58401       21.24485       48.48624
H         47.16987       21.76962       47.05930
O         49.85329       23.49221       47.43937
H         49.93283       24.41464       47.77933
H         49.69270       23.59432       46.46868

Ca 1.0



