%chk=holoCaM.loop1.water2.frame489.chk
%nprocshared=20
%mem=10GB
%nosave
#b3lyp/svp scf=(tight,noincore,xqc) Test 
#IOP(5/87=12) Density=Current Pop=(MK,readradii) iop(6/33=2) iop(6/42=6)

holoCaM.loop1.water2.frame489 

   0  1 
C         -2.52369       83.54169       40.96083
C         -3.90773       83.32417       41.50088
O         -4.87320       83.38951       40.75488
H         -1.90591       82.63664       41.14384
H         -2.54552       83.75201       39.87200
H         -2.05416       84.40336       41.48353
N         -4.06398       83.06103       42.82264
C         -5.35102       82.85315       43.48017
C         -6.23187       84.09780       43.34415
O         -5.76537       85.18289       43.66206
C         -5.06593       82.49533       44.95059
C         -6.30011       82.27969       45.75118
O         -6.49028       83.02062       46.85390
O         -7.11108       81.42449       45.43549
H         -3.20366       83.01018       43.39378
H         -5.86442       81.97988       43.02161
H         -4.47083       83.30430       45.42892
H         -4.46548       81.55847       44.98351
N         -7.52280       84.00654       42.88663
C         -8.37635       85.16766       42.61813
C         -9.48776       85.37221       43.65739
O        -10.16861       86.38391       43.55989
C         -9.07439       85.01627       41.23407
C         -8.14260       84.78255       40.03270
C         -8.89833       84.76966       38.67883
C         -9.95552       83.65433       38.53408
N        -10.57585       83.67988       37.20801
H         -7.91728       83.07569       42.70744
H         -7.75326       86.08862       42.62478
H         -9.66809       85.93561       41.03645
H         -9.77429       84.15491       41.29881
H         -7.59292       83.82584       40.15982
H         -7.40081       85.60869       39.99383
H         -8.14464       84.64071       37.87159
H         -9.39510       85.75303       38.53015
H        -10.75106       83.77144       39.29982
H         -9.48162       82.66733       38.67500
H        -11.27528       82.90441       37.14091
H        -11.06659       84.59037       37.05503
H         -9.85163       83.53930       36.46651
N         -9.78379       84.45223       44.62301
C        -10.94016       84.57033       45.53136
C        -10.58740       84.26096       46.99213
O        -11.48836       84.22789       47.81862
C        -12.11872       83.69168       45.03105
C        -11.74907       82.25068       44.92375
O        -10.75954       81.94552       44.08023
O        -12.31317       81.39192       45.57958
H         -9.22582       83.58856       44.65336
H        -11.34289       85.60615       45.51410
H        -12.42320       84.04041       44.01909
H        -12.99228       83.81631       45.70635
N         -9.29880       84.09355       47.39645
C         -8.88874       83.90075       48.78060
C         -9.15369       82.51786       49.34106
O         -9.71044       82.41696       50.42474
H         -8.54857       84.21658       46.70761
H         -9.32603       84.69423       49.42522
H         -7.78677       84.02470       48.82677
N         -8.70510       81.40891       48.68715
C         -8.71228       80.05691       49.25161
C         -7.32657       79.39286       49.20902
O         -7.20602       78.28127       49.70582
C         -9.74854       79.18162       48.52335
C         -9.59327       79.20763       47.03045
O        -10.52894       79.55709       46.33532
O         -8.43159       78.87056       46.44825
H         -8.33233       81.53447       47.73790
H         -9.00972       80.08548       50.32303
H        -10.76565       79.55378       48.77509
H         -9.67810       78.13393       48.88925
N         -6.24456       79.98726       48.62682
C         -4.93037       79.37426       48.52930
C         -4.95565       78.07707       47.75310
O         -4.41637       77.09824       48.24587
H         -6.32896       80.92217       48.21845
H         -4.50522       79.21155       49.54403
H         -4.25666       80.07654       47.98987
N         -5.50834       78.02144       46.50617
C         -5.48569       76.83477       45.63750
C         -5.80707       77.20655       44.18275
O         -6.25530       78.31269       43.90983
C         -6.43756       75.67580       46.08832
C         -6.12098       75.00335       47.43431
O         -7.78051       76.08507       46.04934
H         -5.87486       78.91068       46.13687
H         -4.43459       76.46909       45.61910
H         -6.32547       74.85619       45.34694
H         -7.98122       76.54359       46.90552
H         -6.30906       75.68409       48.28825
H         -6.79274       74.13033       47.57699
H         -5.07130       74.64132       47.45042
N         -5.51200       76.32600       43.18213
C         -5.62517       76.62710       41.75561
C         -6.47876       75.56626       41.06097
O         -6.20964       74.38078       41.19490
C         -4.19020       76.73317       41.15734
C         -3.37588       77.89178       41.81366
C         -4.19103       76.88286       39.62507
C         -3.91337       79.31220       41.55998
H         -5.09021       75.41966       43.43914
H         -6.11068       77.60858       41.59038
H         -3.65757       75.78257       41.38250
H         -2.33329       77.85712       41.43130
H         -3.32387       77.73217       42.91134
H         -4.67878       76.01089       39.14302
H         -4.72199       77.79615       39.30571
H         -3.14777       76.93398       39.24772
H         -3.26558       80.05092       42.07706
H         -3.89774       79.55855       40.47977
H         -4.94116       79.45048       41.94871
N         -7.51237       75.95686       40.26153
C         -8.42974       75.08309       39.54005
C         -8.24182       75.28734       38.03629
O         -7.28731       75.94072       37.63921
C         -9.89504       75.41615       39.96097
C        -10.10799       75.35519       41.48045
O        -10.31725       76.65444       39.43853
H         -7.66158       76.95641       40.12817
H         -8.23783       74.01572       39.78415
H        -10.57266       74.64925       39.53404
H         -9.92923       77.37895       39.98558
H        -11.17289       75.56432       41.71840
H         -9.84565       74.34809       41.86572
H         -9.48119       76.11176       41.99682
N         -9.13928       74.78661       37.13983
C         -9.07260       75.04270       35.70038
C         -9.10402       76.53830       35.39042
O         -8.23460       76.99819       34.66567
C        -10.21309       74.32167       34.92875
C        -10.11102       72.79051       35.02387
O        -11.48839       74.77319       35.31973
H         -9.91867       74.22342       37.50134
H         -8.11535       74.63176       35.30608
H        -10.09531       74.56609       33.84984
H        -11.72696       74.34241       36.18068
H         -9.12670       72.45059       34.63698
H        -10.22201       72.43701       36.06959
H        -10.90923       72.32365       34.40911
N        -10.08025       77.35591       35.88403
C        -10.16684       78.78654       35.56354
C         -9.00944       79.63116       36.11886
O         -8.98300       80.81829       35.82447
C        -11.51983       79.36545       36.04645
C        -12.70183       78.74713       35.27536
C        -14.04374       79.35059       35.71590
C        -15.24496       78.78353       34.93475
N        -15.20204       79.12731       33.51054
H        -10.80741       76.93428       36.48076
H        -10.14128       78.89776       34.45630
H        -11.54080       80.46032       35.84909
H        -11.63263       79.20779       37.14220
H        -12.73733       77.64761       35.42779
H        -12.53923       78.95137       34.19711
H        -14.02420       80.45547       35.59325
H        -14.19304       79.12342       36.79418
H        -16.17255       79.21409       35.37292
H        -15.29272       77.67847       35.05455
H        -16.08191       78.79495       33.05390
H        -15.13428       80.16425       33.39074
H        -14.39882       78.65934       33.03515
N         -8.01718       79.10877       36.89716
C         -6.88665       79.87919       37.42342
C         -5.55017       79.39330       36.87656
O         -4.54226       80.00888       37.19913
C         -6.85069       79.72074       38.95157
C         -8.06411       80.33425       39.62865
C         -8.18089       79.89755       41.05285
O         -8.07627       80.78198       42.03782
O         -8.49138       78.75609       41.33133
H         -8.06107       78.11921       37.14964
H         -6.97563       80.95441       37.15102
H         -5.94628       80.19548       39.39072
H         -6.80600       78.63997       39.15577
H         -9.01017       80.04282       39.12376
H         -7.94610       81.43368       39.57891
N         -5.43890       78.30133       36.07077
C         -4.16013       77.83304       35.58612
H         -3.50052       77.58160       36.44409
H         -4.30198       76.91985       34.96969
H         -3.68096       78.61633       34.96225
H         -6.26750       77.76414       35.80111
Ca        -9.34512       80.27353       43.78959
O        -10.36601       77.26284       44.46403
H         -9.40470       77.24828       44.22730
H        -10.65947       76.32127       44.38220
O        -11.66120       78.81893       42.19821
H        -11.72485       78.82996       41.21046
H        -12.01915       79.69787       42.48067

Ca 1.0



