%chk=holoCaM.loop3.water3.frame415.chk
%nprocshared=20
%mem=10GB
%nosave
#b3lyp/svp scf=(tight,noincore,xqc) Test 
#IOP(5/87=12) Density=Current Pop=(MK,readradii) iop(6/33=2) iop(6/42=6)

holoCaM.loop3.water3.frame415 

   0  1 
C        -14.23635       83.58150       56.01231
C        -14.85768       83.50203       57.37385
O        -16.07281       83.41505       57.48239
H        -13.54402       82.72263       55.87462
H        -15.01146       83.54341       55.21875
H        -13.66225       84.52650       55.91912
N        -14.05744       83.48773       58.47167
C        -14.57028       83.32519       59.82298
C        -15.35699       84.54637       60.27258
O        -14.79904       85.63294       60.33963
C        -13.39693       83.04769       60.77597
C        -13.81197       82.67068       62.16137
O        -14.98515       82.59606       62.48802
O        -12.85507       82.39883       63.05596
H        -13.03568       83.52266       58.32463
H        -15.22031       82.42601       59.83257
H        -12.73161       83.93704       60.82484
H        -12.80920       82.19140       60.37939
N        -16.67165       84.42490       60.60365
C        -17.49442       85.54034       61.05708
C        -17.04860       86.06984       62.41002
O        -16.83549       87.26852       62.52691
C        -18.98337       85.12445       61.15797
C        -19.62647       84.70021       59.82081
C        -19.59265       85.81324       58.76165
C        -20.33913       85.40435       57.48735
N        -20.23831       86.45445       56.47325
H        -17.11034       83.49675       60.50828
H        -17.42916       86.37314       60.32682
H        -19.56852       85.98481       61.55342
H        -19.08775       84.28577       61.88008
H        -20.68660       84.43649       60.03109
H        -19.12311       83.79744       59.41702
H        -18.54098       86.03104       58.48454
H        -20.06025       86.73452       59.17367
H        -21.41045       85.22226       57.72748
H        -19.90297       84.46404       57.08258
H        -19.23592       86.60375       56.21274
H        -20.76752       86.16249       55.62052
H        -20.64259       87.34870       56.83542
N        -16.93736       85.24076       63.48733
C        -16.72617       85.71964       64.85458
C        -15.34989       85.38687       65.42428
O        -15.14528       85.61562       66.60909
C        -17.88861       85.22954       65.75606
C        -18.01157       83.73801       65.94353
O        -19.01144       83.25483       66.70457
O        -17.22994       82.96037       65.42414
H        -17.06244       84.22995       63.33382
H        -16.78254       86.82970       64.88821
H        -18.84285       85.59577       65.31814
H        -17.78356       85.68848       66.76270
N        -14.32254       84.95335       64.63649
C        -12.96652       84.76049       65.14290
C        -12.79380       83.56875       66.07214
O        -11.69606       83.39523       66.58215
H        -14.47409       84.85349       63.62468
H        -12.64930       85.68893       65.66621
H        -12.27444       84.61426       64.28692
N        -13.81197       82.70209       66.33714
C        -13.70678       81.57793       67.27227
C        -12.66486       80.52280       66.88519
O        -12.34405       79.69048       67.72149
C        -15.11174       80.95305       67.49050
C        -15.71855       80.19348       66.27829
N        -15.35202       78.78850       66.29884
O        -15.31414       80.76845       65.06520
H        -14.72112       82.88813       65.90130
H        -13.38564       82.01930       68.24239
H        -15.79680       81.79027       67.74367
H        -15.10378       80.28457       68.37911
H        -15.70710       78.36890       67.18864
H        -15.88700       78.32592       65.53246
N        -12.10551       80.48946       65.64246
C        -11.04934       79.57902       65.22785
C        -11.49596       78.59443       64.16559
O        -10.63627       77.90943       63.62876
H        -12.43497       81.14891       64.93757
H        -10.64337       78.99255       66.07984
H        -10.21878       80.19827       64.82400
N        -12.81525       78.39458       63.87227
C        -13.28985       77.35225       62.95930
C        -14.30212       77.91896       61.97219
O        -14.72384       79.05345       62.15099
C        -13.95112       76.25093       63.81414
C        -12.98540       75.71312       64.85034
C        -13.14954       76.03250       66.21083
C        -11.90036       74.90929       64.46700
C        -12.24263       75.56761       67.16586
C        -11.00156       74.42998       65.42734
C        -11.16853       74.76203       66.78037
O        -10.30685       74.31474       67.71613
H        -13.52476       78.92590       64.39375
H        -12.43949       76.92016       62.38804
H        -14.34423       75.41760       63.19411
H        -14.81815       76.71110       64.32986
H        -13.96663       76.65594       66.53692
H        -11.75567       74.64911       63.42648
H        -12.37544       75.83567       68.20719
H        -10.17427       73.80410       65.11887
H         -9.55332       73.74937       67.49512
N        -14.73185       77.19181       60.89284
C        -15.74633       77.68779       59.95719
C        -16.72766       76.57873       59.57760
O        -16.32068       75.58353       58.99520
C        -15.11872       78.39426       58.70676
C        -14.31857       77.44879       57.77241
C        -14.25888       79.58817       59.16121
C        -13.77424       78.14377       56.52047
H        -14.30393       76.27011       60.71556
H        -16.33805       78.48358       60.46310
H        -15.96649       78.81081       58.11675
H        -14.98654       76.65189       57.39525
H        -13.47712       76.97962       58.32500
H        -13.94373       80.21754       58.30520
H        -14.85181       80.23824       59.83156
H        -13.35256       79.24452       59.70278
H        -13.01025       78.90484       56.77665
H        -13.28679       77.39274       55.86414
H        -14.60142       78.62410       55.95448
N        -18.05238       76.68536       59.88253
C        -19.05399       75.70294       59.46101
C        -19.27513       75.76031       57.94978
O        -18.64699       76.56603       57.28361
C        -20.38510       75.96891       60.19387
O        -20.89382       77.22735       59.84997
H        -18.36014       77.49717       60.43438
H        -18.71566       74.68609       59.75844
H        -20.20709       75.92756       61.29075
H        -21.12450       75.18078       59.93036
H        -21.80286       77.27902       60.24409
N        -20.19150       74.95046       57.34528
C        -20.54247       75.04805       55.92832
C        -21.12842       76.41569       55.61163
O        -20.66517       77.06397       54.68419
C        -21.56721       73.96709       55.56067
H        -20.68507       74.25408       57.92338
H        -19.64007       74.86903       55.30121
H        -21.82235       74.03372       54.48061
H        -21.14068       72.96010       55.75460
H        -22.49934       74.07975       56.15456
N        -22.14359       76.91942       56.37082
C        -22.77475       78.21962       56.14799
C        -21.75599       79.34437       56.11982
O        -21.75875       80.12248       55.17624
C        -23.80508       78.49220       57.25206
H        -22.47097       76.34989       57.16705
H        -23.31871       78.20385       55.17706
H        -24.57861       77.69484       57.25667
H        -23.31647       78.51687       58.25030
H        -24.30920       79.46665       57.07714
N        -20.83048       79.46185       57.11164
C        -19.79390       80.49428       57.15102
C        -19.00225       80.48257       55.85100
O        -18.93630       81.51394       55.19624
C        -18.88654       80.29559       58.39852
C        -19.68710       80.54082       59.69929
C        -18.92392       80.25335       60.96786
O        -17.80687       80.93261       61.28844
O        -19.35748       79.42601       61.75314
H        -20.84551       78.74620       57.84975
H        -20.26995       81.49730       57.24081
H        -18.04056       81.01760       58.36956
H        -18.46794       79.26563       58.38609
H        -20.59362       79.90357       59.70950
H        -20.02692       81.59664       59.72101
N        -18.44662       79.33359       55.37875
C        -17.77901       79.22709       54.09634
H        -16.74603       78.85218       54.24424
H        -18.33257       78.50430       53.45803
H        -17.73507       80.19612       53.55659
H        -18.54114       78.47560       55.92883
Ca       -16.83058       80.62520       63.33527
O        -17.91609       77.77407       63.70796
H        -18.27837       77.64365       64.61998
H        -17.15783       77.14126       63.64679
O        -20.16763       81.94483       63.33289
H        -20.01855       82.84231       63.72221
H        -20.92861       81.57309       63.84567
O        -18.68815       80.11987       66.02991
H        -19.46613       80.63306       65.69926
H        -19.08095       79.37674       66.55229

Ca 1.0



