%chk=holoCaM.loop1.water2.frame464.chk
%nprocshared=20
%mem=10GB
%nosave
#b3lyp/svp scf=(tight,noincore,xqc) Test 
#IOP(5/87=12) Density=Current Pop=(MK,readradii) iop(6/33=2) iop(6/42=6)

holoCaM.loop1.water2.frame464 

   0  1 
C         19.31564       84.27280       57.84969
C         19.16864       85.31267       56.78995
O         18.05412       85.64790       56.41529
H         19.90013       84.69141       58.69540
H         18.32414       83.93681       58.21571
H         19.86143       83.40634       57.42050
N         20.28632       85.86597       56.25371
C         20.24913       86.85049       55.19773
C         20.23250       86.13546       53.84789
O         21.08775       85.29939       53.59644
C         21.43145       87.82836       55.37232
C         21.28286       88.99376       54.47116
O         22.03268       89.94442       54.53504
O         20.28799       88.97372       53.59778
H         21.20778       85.56807       56.60644
H         19.32631       87.47243       55.32012
H         22.40482       87.32607       55.19793
H         21.39511       88.24061       56.40175
N         19.25236       86.41429       52.94292
C         19.00393       85.69150       51.70077
C         19.25414       86.53728       50.44312
O         19.05422       86.01766       49.35939
C         17.52876       85.22363       51.73253
C         17.20891       84.28550       52.91353
C         17.68386       82.84727       52.66705
C         17.31680       81.94355       53.85361
N         17.58021       80.53802       53.54657
H         18.59655       87.15974       53.18564
H         19.67616       84.81089       51.61538
H         17.22327       84.73252       50.78348
H         16.90224       86.13540       51.84219
H         16.10394       84.24723       53.02654
H         17.62375       84.68986       53.86174
H         18.78050       82.80377       52.49616
H         17.16629       82.47384       51.75596
H         16.23515       82.05515       54.08923
H         17.90304       82.25187       54.74867
H         17.31345       79.95242       54.37085
H         17.00024       80.24056       52.72770
H         18.59311       80.39211       53.33380
N         19.74038       87.81707       50.50650
C         20.10562       88.59472       49.32027
C         21.29232       89.53904       49.55990
O         21.44940       90.50639       48.81815
C         18.87243       89.20154       48.61913
C         17.93483       90.10538       49.38861
O         18.05585       90.47871       50.66923
O         16.96744       90.54114       48.79351
H         19.94132       88.22213       51.41403
H         20.54750       87.88628       48.57926
H         18.23726       88.36145       48.26716
H         19.21223       89.75137       47.71385
N         22.26406       89.20766       50.45405
C         23.57433       89.83617       50.57933
C         23.59469       91.32267       50.88140
O         24.29966       92.03495       50.17943
H         22.12413       88.37325       51.04592
H         24.15105       89.65216       49.64510
H         24.11826       89.32186       51.40004
N         22.88760       91.86357       51.91281
C         22.94581       93.29019       52.26384
C         23.17640       93.53635       53.76647
O         23.12259       94.68736       54.18387
C         21.69055       93.99703       51.70962
C         20.38639       93.56892       52.30575
O         19.34444       93.99723       51.84030
O         20.34362       92.73126       53.34942
H         22.23545       91.25209       52.42090
H         23.79020       93.78205       51.73230
H         21.65225       93.79026       50.61715
H         21.78362       95.09673       51.84313
N         23.48481       92.52494       54.62969
C         23.74730       92.68841       56.05841
C         22.53533       92.97531       56.94271
O         22.72717       93.03926       58.14860
H         23.64151       91.58632       54.24399
H         24.52848       93.46402       56.20776
H         24.15865       91.72597       56.43664
N         21.27422       93.13538       56.44676
C         20.07719       93.31997       57.27737
C         19.02700       92.24768       56.97379
O         19.17875       91.49266       56.02279
C         19.47475       94.74764       57.10490
C         20.43688       95.84389       57.57411
O         19.04431       95.00581       55.79213
H         21.15750       93.10831       55.43788
H         20.34829       93.20657       58.34974
H         18.57642       94.82523       57.75381
H         19.76237       94.75348       55.16019
H         21.37588       95.83569       56.98290
H         19.95709       96.84095       57.46787
H         20.68207       95.69315       58.64769
N         17.94411       92.11098       57.79526
C         16.88245       91.11328       57.64282
C         15.52597       91.80990       57.58167
O         15.18686       92.56318       58.48480
C         16.97641       90.07347       58.81141
C         18.11665       89.06696       58.47954
C         15.65185       89.31990       59.06019
C         18.36746       88.00359       59.54917
H         17.88518       92.73037       58.61860
H         16.99724       90.54342       56.69665
H         17.19527       90.61912       59.75583
H         19.06539       89.62196       58.32265
H         17.87098       88.53503       57.53113
H         14.83814       90.02851       59.31303
H         15.35810       88.71729       58.18512
H         15.72887       88.65337       59.94098
H         17.48288       87.34924       59.69015
H         19.20207       87.34789       59.22241
H         18.63805       88.48333       60.51141
N         14.67562       91.54406       56.54607
C         13.31338       92.04728       56.43868
C         12.35994       91.16812       57.23802
O         12.77187       90.14623       57.76723
C         12.84394       92.05655       54.94786
C         13.74889       92.88240       54.04624
O         12.81723       90.74938       54.44577
H         14.96931       90.86501       55.84356
H         13.27958       93.08903       56.82768
H         11.82059       92.49073       54.90820
H         12.36347       90.77305       53.56314
H         13.32266       92.91459       53.01991
H         13.85731       93.91772       54.42519
H         14.72800       92.37330       53.98133
N         11.04512       91.50357       57.33452
C         10.02235       90.67147       57.97891
C          9.68220       89.40026       57.18524
O          8.90967       88.59221       57.68036
C          8.73671       91.50966       58.19473
C          8.99138       92.59898       59.24205
O          8.31911       92.11733       56.99616
H         10.76517       92.41084       56.93214
H         10.39536       90.34871       58.97775
H          7.91388       90.87638       58.59566
H          8.09337       91.39405       56.35641
H          9.83140       93.26242       58.94611
H          8.08149       93.21939       59.37413
H          9.24146       92.12935       60.21823
N         10.23236       89.15044       55.96705
C         10.03227       87.93595       55.18177
C         11.22582       87.03262       55.42956
O         11.04267       85.87717       55.78964
C          9.85722       88.34141       53.69906
C          9.69669       87.15855       52.72595
C          9.52071       87.63102       51.26451
C          8.19188       88.35630       50.96102
N          7.03778       87.46041       51.06571
H         10.88858       89.83497       55.58492
H          9.11540       87.39015       55.49942
H         10.73929       88.93356       53.37148
H          8.96212       88.99387       53.64488
H          8.85421       86.50412       53.02846
H         10.62716       86.55200       52.76962
H          9.59081       86.75360       50.58583
H         10.36449       88.31091       51.01336
H          8.24010       88.73762       49.91683
H          8.05187       89.23855       51.61992
H          7.15295       86.65291       50.41026
H          6.91994       87.11164       52.04244
H          6.17368       87.98394       50.79599
N         12.48598       87.53936       55.35046
C         13.69606       86.81003       55.70908
C         13.65982       86.36902       57.17183
O         14.38818       85.44934       57.51814
C         14.94912       87.69675       55.45227
C         15.06825       88.09303       53.96488
C         16.23765       88.98053       53.63244
O         16.97871       88.67384       52.72033
O         16.41673       90.16780       54.23021
H         12.57905       88.51552       55.06999
H         13.75569       85.90178       55.06983
H         15.86818       87.16162       55.77282
H         14.85300       88.61740       56.06019
H         14.16953       88.64745       53.64345
H         15.13553       87.16583       53.35917
N         12.85383       86.98754       58.08659
C         12.76120       86.60364       59.48045
H         11.69839       86.39773       59.73045
H         13.35758       85.69776       59.71310
H         13.11697       87.44044       60.11824
H         12.27677       87.78739       57.80118
Ca        19.38940       90.48673       52.38595
O         15.86359       92.24107       51.63812
H         15.56018       92.99777       51.08197
H         16.81296       92.16808       51.39791
O         17.22696       93.38954       54.13058
H         16.33111       93.80016       54.14347
H         17.79684       94.13791       53.83428

Ca 1.0



