%chk=holoCaM-CaMKII.loop3.water2.frame337.chk
%nprocshared=20
%mem=10GB
%nosave
#b3lyp/svp scf=(tight,noincore,xqc) Test 
#IOP(5/87=12) Density=Current Pop=(MK,readradii) iop(6/33=2) iop(6/42=6)

holoCaM-CaMKII.loop3.water2.frame337 

   0  1 
C         15.64861       55.88146       57.65720
C         14.18548       55.68178       57.38796
O         13.53736       56.60118       56.90879
H         16.16906       56.12886       56.70801
H         15.78753       56.71010       58.38079
H         16.11223       54.96296       58.07688
N         13.59998       54.48271       57.64973
C         12.20559       54.19751       57.34837
C         11.26263       55.03029       58.20336
O         11.41785       55.07175       59.41554
C         11.91708       52.70029       57.55659
C         10.61422       52.25991       56.94417
O         10.28152       50.96808       57.01393
O          9.87699       53.03191       56.35212
H         14.18772       53.72345       58.02852
H         12.04423       54.40664       56.26715
H         11.94699       52.45524       58.63821
H         12.70429       52.09440       57.06398
N         10.21287       55.66415       57.61675
C          9.21452       56.46518       58.31898
C          8.56311       55.69099       59.46075
O          8.56437       56.19152       60.57633
C          8.16054       56.95239       57.29493
C          7.16139       57.96752       57.86328
C          6.23127       58.48186       56.75221
C          5.28916       59.57490       57.27254
N          4.43552       60.08543       56.19921
H         10.11152       55.54949       56.60042
H          9.71921       57.36420       58.73717
H          7.61380       56.08283       56.86940
H          8.70468       57.46205       56.46978
H          7.73092       58.82652       58.27991
H          6.55949       57.50457       58.67500
H          5.63422       57.63719       56.34278
H          6.84626       58.91117       55.93035
H          5.89273       60.41459       57.68419
H          4.65350       59.16467       58.08786
H          3.81476       60.83472       56.58216
H          5.02227       60.49406       55.43531
H          3.84110       59.31639       55.81336
N          8.00774       54.46121       59.25747
C          7.32336       53.69357       60.30951
C          8.05925       52.40994       60.71880
O          7.59493       51.75735       61.64399
C          5.86582       53.37589       59.88137
C          5.78545       52.48474       58.67224
O          4.70760       52.10112       58.24852
O          6.92019       52.09217       58.07967
H          8.08528       54.07045       58.30980
H          7.26287       54.30533       61.23498
H          5.32525       54.32162       59.66823
H          5.34978       52.86118       60.72141
N          9.21317       51.99609       60.11998
C          9.97475       50.84183       60.58052
C          9.24841       49.51573       60.44181
O          8.99818       48.88648       61.46030
H          9.61163       52.55506       59.35780
H         10.24643       51.01075       61.64679
H         10.92617       50.76622       60.01189
N          8.95787       48.98857       59.21276
C          8.37736       47.66050       59.01235
C          9.36797       46.69592       58.37221
O          9.02188       45.53298       58.21622
C          7.07666       47.75616       58.16890
C          7.22081       47.78510       56.61783
N          7.48748       46.46857       56.05686
O          8.19039       48.67552       56.16509
H          9.20045       49.52913       58.38358
H          8.10035       47.24451       60.00574
H          6.50697       48.64528       58.51719
H          6.44013       46.87456       58.39628
H          6.65611       45.86314       56.23782
H          7.56771       46.57355       55.02102
N         10.60645       47.10455       57.96111
C         11.55726       46.23779       57.28819
C         12.00486       46.77614       55.93740
O         12.89079       46.15503       55.36921
H         10.91715       48.07034       58.13291
H         11.15308       45.21277       57.14245
H         12.45544       46.15748       57.93710
N         11.49208       47.91637       55.36909
C         12.00211       48.48035       54.10861
C         11.47813       49.89015       53.81819
O         10.55556       50.34667       54.47443
C         11.80515       47.51324       52.91473
C         10.39095       47.01121       52.71062
C          9.37015       47.84820       52.22861
C         10.09694       45.65886       52.96937
C          8.08665       47.33304       51.99658
C          8.81481       45.15230       52.74951
C          7.80683       45.98267       52.25577
O          6.57939       45.47077       52.03160
H         10.75899       48.42773       55.87620
H         13.09438       48.62151       54.24990
H         12.45793       46.63690       53.09076
H         12.18229       47.96274       51.97213
H          9.56883       48.88876       52.00846
H         10.86223       44.98975       53.34251
H          7.31063       47.97964       51.60777
H          8.60827       44.10916       52.95534
H          5.85392       46.00311       51.67598
N         12.09628       50.66805       52.87418
C         11.78958       52.08143       52.65278
C         11.29988       52.27501       51.22867
O         11.97930       51.83736       50.30961
C         13.03641       53.01707       52.86920
C         13.81710       52.81723       54.19100
C         12.56354       54.49077       52.83953
C         14.72043       51.58556       54.23585
H         12.86111       50.25548       52.31854
H         11.00668       52.41812       53.36995
H         13.76567       52.87879       52.04039
H         13.11564       52.81955       55.03612
H         14.51699       53.67349       54.32026
H         13.42291       55.18662       52.94582
H         12.06938       54.74015       51.88289
H         11.85040       54.69143       53.66988
H         15.43846       51.61049       53.38799
H         15.30017       51.59387       55.18298
H         14.15857       50.64273       54.21182
N         10.17807       53.00596       50.96916
C          9.71380       53.30736       49.61711
C          9.90969       54.78602       49.28986
O         10.39883       55.53149       50.12490
C          8.25255       52.85621       49.46597
O          7.41033       53.56988       50.33326
H          9.66268       53.41541       51.76142
H         10.31451       52.74738       48.86807
H          8.17917       51.75837       49.65186
H          7.89812       53.01121       48.42638
H          7.29305       53.01453       51.14753
N          9.58547       55.26453       48.05348
C          9.82718       56.63904       47.60963
C          9.14099       57.66045       48.48768
O          9.79023       58.61287       48.89572
C          9.35531       56.82254       46.16517
H          9.17375       54.60504       47.37633
H         10.92258       56.83976       47.62170
H          9.89572       56.11646       45.50007
H          8.26336       56.63851       46.07961
H          9.57430       57.85790       45.82406
N          7.83199       57.52122       48.83198
C          7.14714       58.44842       49.72525
C          7.87339       58.54056       51.05391
O          8.19828       59.63757       51.48690
C          5.70385       57.98143       49.96560
H          7.31820       56.70006       48.47571
H          7.10234       59.45685       49.25613
H          5.68305       56.97296       50.43301
H          5.17604       58.69267       50.63699
H          5.15215       57.93386       49.00312
N          8.15502       57.40807       51.75432
C          8.76658       57.41394       53.08004
C         10.20758       57.92152       53.09545
O         10.72821       58.12947       54.18312
C          8.74510       55.99359       53.67663
C          7.32105       55.43199       53.82595
C          7.34676       54.06619       54.44292
O          7.93866       53.15268       53.89149
O          6.70110       53.83770       55.60115
H          7.87598       56.51016       51.33342
H          8.15665       58.08052       53.73044
H          9.21184       56.02065       54.67509
H          9.35354       55.32279       53.03406
H          6.81735       55.34769       52.84205
H          6.72181       56.11577       54.46426
N         10.92740       58.10557       51.95314
C         12.30283       58.56316       51.93015
H         12.94204       57.77964       51.47058
H         12.37306       59.48539       51.31597
H         12.69629       58.78603       52.94378
H         10.50380       57.88681       51.04879
Ca         7.20710       50.64050       56.46254
O          4.55914       50.65898       54.86911
H          4.63168       51.38606       55.53720
H          4.14113       49.90932       55.36274
O          7.29708       50.45270       53.05135
H          6.67087       50.52974       52.28823
H          7.03152       49.61629       53.50958

Ca 1.0



