%chk=holoCaM-CaMKII.loop2.water2.frame24.chk
%nprocshared=20
%mem=10GB
%nosave
#b3lyp/svp scf=(tight,noincore,xqc) Test 
#IOP(5/87=12) Density=Current Pop=(MK,readradii) iop(6/33=2) iop(6/42=6)

holoCaM-CaMKII.loop2.water2.frame24 

   -2  1 
C         44.03417       48.90970       17.94192
C         43.86791       47.49480       17.44834
O         43.79553       46.58220       18.25647
H         44.06113       49.63554       17.09929
H         43.17250       49.18166       18.58877
H         44.97368       49.01318       18.52079
N         43.75397       47.25393       16.11582
C         43.45795       45.94958       15.52965
C         44.58255       44.92906       15.65597
O         45.70409       45.23315       15.27341
C         43.16391       46.14201       14.03064
C         42.79014       44.84141       13.40037
O         43.44261       44.38811       12.47414
O         41.75735       44.14792       13.90095
H         43.79791       48.06872       15.48304
H         42.53005       45.55266       15.99907
H         44.05132       46.57201       13.51520
H         42.31199       46.84418       13.91152
N         44.30291       43.64653       16.05281
C         45.27742       42.55761       16.00867
C         44.84566       41.36093       15.13490
O         45.66934       40.46751       14.98996
C         45.54077       42.06576       17.43658
H         43.35030       43.42705       16.37383
H         46.24072       42.93086       15.59767
H         45.90081       42.90372       18.07040
H         44.60911       41.65496       17.88298
H         46.31807       41.27100       17.44136
N         43.59386       41.21684       14.58117
C         43.15699       39.95580       13.94361
C         42.26596       40.10610       12.69791
O         41.90488       39.08432       12.13014
C         42.46154       39.08081       15.01210
C         41.21936       39.70243       15.58094
O         40.72016       39.24526       16.59621
O         40.69019       40.80119       15.02055
H         42.88713       41.93112       14.78944
H         44.05044       39.38213       13.61333
H         43.18861       38.95405       15.84437
H         42.21729       38.07029       14.62057
N         41.88068       41.31528       12.20083
C         41.08755       41.48319       10.98463
C         39.61642       41.07822       11.06318
O         38.94408       41.21595       10.05089
H         42.22907       42.16387       12.65010
H         41.58307       40.93497       10.15507
H         41.08975       42.56330       10.71854
N         39.02791       40.60611       12.20032
C         37.60863       40.24302       12.30137
C         36.62586       41.42446       12.17790
O         35.43012       41.18752       12.28531
C         37.34023       39.45560       13.61090
C         37.53812       40.21184       14.90086
N         37.26655       39.60013       16.07440
O         37.93525       41.36571       14.90206
H         39.61914       40.45332       13.01723
H         37.38080       39.52605       11.48198
H         37.99943       38.56038       13.63274
H         36.28870       39.09509       13.59280
H         36.92941       38.62698       16.09856
H         37.38271       40.10336       16.96101
N         37.03031       42.70253       11.91968
C         36.11821       43.82150       11.72683
C         35.50356       44.39610       12.99116
O         34.77826       45.37179       12.85814
H         38.02022       42.89746       11.75092
H         35.32702       43.53743       10.99942
H         36.69636       44.65770       11.27660
N         35.74651       43.89569       14.23760
C         35.20547       44.49615       15.45825
C         36.30805       44.89755       16.42577
O         37.46343       44.54341       16.23544
C         34.23205       43.50691       16.15701
C         32.94637       43.33296       15.34997
O         34.83358       42.24843       16.33507
H         36.33532       43.06254       14.33604
H         34.65303       45.43241       15.22571
H         33.90559       43.90532       17.14495
H         35.51154       42.34415       17.05307
H         32.43136       44.31304       15.24776
H         33.15936       42.92576       14.34035
H         32.26115       42.63824       15.88169
N         35.97295       45.61339       17.53764
C         36.87346       45.86703       18.65151
C         36.61558       44.76588       19.65680
O         35.47324       44.58576       20.05943
C         36.60377       47.26877       19.29096
C         36.87399       48.40860       18.27754
C         37.46083       47.46036       20.56407
C         36.44431       49.78926       18.79162
H         34.97962       45.85652       17.67428
H         37.93650       45.83088       18.32447
H         35.53201       47.31056       19.58917
H         36.29331       48.21903       17.35057
H         37.95405       48.43273       18.01239
H         37.24324       48.41986       21.07126
H         37.22785       46.67929       21.31181
H         38.54457       47.41480       20.32285
H         35.35991       49.78621       19.03433
H         37.01548       50.09991       19.68913
H         36.62687       50.55240       18.00681
N         37.64170       44.01063       20.13416
C         37.45798       42.99336       21.16021
C         37.77238       43.59781       22.50760
O         38.20529       44.73814       22.55428
C         38.37924       41.78749       20.89318
C         38.13883       41.15632       19.55549
O         37.75781       39.86699       19.48190
O         38.32349       41.79390       18.53078
H         38.60240       44.24899       19.85291
H         36.39746       42.65724       21.18189
H         38.21471       41.02114       21.67978
H         39.44277       42.11254       20.93598
N         37.54990       42.91703       23.66398
C         37.85686       43.51105       24.95671
C         39.35600       43.77149       25.10756
O         39.69096       44.89675       25.44544
C         37.30843       42.68305       26.14033
C         37.67319       43.35584       27.44578
C         38.53767       42.71737       28.35083
C         37.19257       44.64404       27.74832
C         38.92320       43.36078       29.53012
C         37.58083       45.28260       28.92858
C         38.44777       44.64298       29.81745
H         37.13034       41.97501       23.62195
H         37.32371       44.48729       25.01418
H         37.71091       41.65652       26.12530
H         36.20323       42.59342       26.06190
H         38.92861       41.73061       28.13559
H         36.52755       45.16058       27.06785
H         39.59836       42.86806       30.21708
H         37.21512       46.27709       29.14956
H         38.75352       45.14239       30.72723
N         40.32059       42.81628       24.89466
C         41.75301       43.05451       25.05954
C         42.22483       44.30758       24.34734
O         42.92389       45.11812       24.93864
C         42.39920       41.80967       24.43108
C         41.37606       40.74303       24.73554
C         40.07848       41.46919       24.41451
H         41.98411       43.10375       26.14683
H         42.42151       41.90305       23.32078
H         43.43042       41.59925       24.78581
H         41.51013       39.78214       24.19473
H         41.40215       40.54732       25.83222
H         39.90041       41.51398       23.31970
H         39.25813       40.92985       24.91267
N         41.81868       44.53870       23.07160
C         42.17343       45.71627       22.28480
C         41.71577       46.97867       22.98230
O         42.52466       47.86964       23.19835
C         41.51422       45.63557       20.89538
C         42.02025       44.41658       20.11694
C         41.31308       44.22365       18.82507
O         41.56429       43.09835       18.15981
O         40.48586       45.01406       18.40240
H         41.18301       43.84051       22.65870
H         43.27654       45.75595       22.13790
H         41.73924       46.55292       20.30796
H         40.41086       45.55881       21.01818
H         41.84213       43.48378       20.68523
H         43.11244       44.49429       19.92941
N         40.42381       47.11071       23.38153
C         39.92816       48.28530       24.05724
H         38.86184       48.13430       24.33215
H         40.51156       48.46318       24.98492
H         40.00420       49.16463       23.38499
H         39.77080       46.33864       23.22121
Ca        40.51576       42.57146       16.30128
O         39.06177       44.00473       13.71171
H         39.55252       43.21194       13.37652
H         39.21351       44.70067       13.02317
O         39.83538       46.12563       15.51451
H         40.14262       46.49373       16.37895
H         39.96092       46.86830       14.87322

Ca 1.0



