%chk=holoCaM.loop2.water2.frame109.chk
%nprocshared=20
%mem=10GB
%nosave
#b3lyp/svp scf=(tight,noincore,xqc) Test 
#IOP(5/87=12) Density=Current Pop=(MK,readradii) iop(6/33=2) iop(6/42=6)

holoCaM.loop2.water2.frame109 

   -2  1 
C        -17.95534       27.31238      108.27045
C        -18.79133       27.95139      107.19498
O        -18.32006       28.09002      106.07804
H        -17.03597       27.90608      108.44654
H        -18.51436       27.23408      109.22820
H        -17.67405       26.28393      107.95729
N        -20.06745       28.33481      107.46150
C        -20.99402       28.84842      106.45739
C        -20.57109       30.20866      105.90344
O        -20.35730       31.11581      106.69598
C        -22.39146       28.98969      107.10349
C        -23.47507       29.24871      106.10301
O        -24.73836       29.44468      106.52304
O        -23.23196       29.23361      104.90941
H        -20.41989       28.18528      108.42026
H        -21.07084       28.09279      105.64365
H        -22.37025       29.80833      107.85557
H        -22.66454       28.04870      107.62507
N        -20.50344       30.44007      104.55358
C        -20.18150       31.75028      103.98020
C        -21.30257       32.35179      103.11636
O        -21.14008       33.49129      102.70153
C        -18.90678       31.62387      103.13763
H        -20.69377       29.66012      103.90821
H        -19.98268       32.48036      104.79391
H        -19.07281       30.92293      102.28996
H        -18.60543       32.61136      102.72644
H        -18.07231       31.23644      103.75959
N        -22.42284       31.65665      102.75054
C        -23.42251       32.17068      101.79891
C        -24.88108       31.90924      102.20510
O        -25.75831       32.33100      101.46319
C        -23.13137       31.58666      100.39410
C        -22.84982       30.11658      100.46276
O        -23.72451       29.27531      101.03404
O        -21.74219       29.70351      100.15559
H        -22.49713       30.67253      103.03115
H        -23.33837       33.27559      101.70059
H        -22.21297       32.07923      100.00299
H        -23.95497       31.81218       99.68377
N        -25.23627       31.26334      103.35265
C        -26.62049       31.07616      103.77722
C        -27.47566       30.15811      102.91149
O        -28.65412       30.04462      103.21880
H        -24.50753       30.96102      104.00130
H        -27.10707       32.07461      103.82452
H        -26.62834       30.65149      104.80428
N        -26.99461       29.47971      101.82812
C        -27.85346       28.67132      100.95770
C        -28.51014       27.46919      101.64409
O        -29.41248       26.89847      101.04694
C        -27.09990       28.21951       99.68011
C        -25.90025       27.32803       99.91111
N        -25.21446       26.83913       98.85367
O        -25.53541       27.04765      101.04117
H        -26.00928       29.59144      101.57674
H        -28.67776       29.33851      100.62012
H        -26.75038       29.12047       99.13097
H        -27.81312       27.67671       99.02264
H        -25.50024       27.06276       97.88987
H        -24.40018       26.22707       98.99809
N        -28.11008       27.01002      102.86506
C        -28.75653       25.91040      103.57067
C        -27.92019       24.64413      103.63352
O        -28.37086       23.70098      104.26824
H        -27.31406       27.45515      103.32761
H        -29.71508       25.62807      103.08361
H        -29.00066       26.25714      104.59730
N        -26.75463       24.50491      102.93546
C        -26.02671       23.24116      102.81885
C        -24.54549       23.40411      103.15183
O        -24.10233       24.50076      103.46136
C        -26.18654       22.70250      101.36533
C        -27.65550       22.46285      100.98298
O        -25.55296       23.54527      100.43206
H        -26.41931       25.29257      102.37392
H        -26.45068       22.47697      103.50671
H        -25.70306       21.70792      101.28651
H        -26.12631       24.34189      100.29203
H        -28.23195       23.41187      100.99100
H        -27.70948       22.02901       99.96192
H        -28.12478       21.75091      101.69474
N        -23.70887       22.33420      103.02175
C        -22.25647       22.40022      103.11085
C        -21.71640       22.35447      101.69623
O        -22.05294       21.44384      100.95059
C        -21.69881       21.21401      103.96011
C        -22.10299       21.30517      105.45372
C        -20.16723       21.06033      103.82451
C        -21.48702       22.48506      106.21840
H        -24.10823       21.43241      102.72383
H        -21.91974       23.35452      103.56001
H        -22.13759       20.27345      103.55709
H        -21.77616       20.37144      105.96246
H        -23.20911       21.36071      105.53484
H        -19.80880       20.20448      104.43477
H        -19.88689       20.83978      102.77382
H        -19.63300       21.98067      104.13414
H        -20.37845       22.43300      106.21734
H        -21.80546       23.45454      105.79112
H        -21.81787       22.44970      107.27707
N        -20.81190       23.28886      101.28845
C        -20.16895       23.27047       99.98324
C        -18.77025       22.71520      100.14183
O        -18.36737       22.43114      101.25856
C        -20.14443       24.68778       99.37894
C        -21.52706       25.25110       99.20751
O        -22.32079       25.43843      100.27933
O        -21.92936       25.56234       98.09812
H        -20.48124       23.98743      101.96805
H        -20.70964       22.58421       99.29452
H        -19.63864       24.65939       98.38969
H        -19.56661       25.36871      100.04219
N        -17.99065       22.45485       99.05921
C        -16.69926       21.79111       99.18573
C        -15.69100       22.62199       99.97994
O        -15.16359       22.07698      100.93939
C        -16.18230       21.32029       97.80933
C        -14.90739       20.51201       97.90916
C        -14.84122       19.35931       98.71744
C        -13.77161       20.89614       97.17675
C        -13.65942       18.61908       98.79863
C        -12.59504       20.14441       97.25211
C        -12.53780       19.00949       98.06494
H        -18.36291       22.65946       98.11884
H        -16.87878       20.85331       99.75568
H        -16.04638       22.17179       97.11844
H        -16.96119       20.66574       97.36054
H        -15.69696       19.02806       99.29023
H        -13.79799       21.77131       96.53974
H        -13.61560       17.73984       99.42870
H        -11.72715       20.44160       96.67861
H        -11.62567       18.43045       98.12434
N        -15.38126       23.93028       99.70013
C        -14.46626       24.74200      100.50213
C        -14.73888       24.65597      101.99316
O        -13.81277       24.48237      102.77235
C        -14.74673       26.17474      100.02121
C        -15.07929       25.95366       98.56832
C        -15.97648       24.72217       98.64058
H        -13.41831       24.44868      100.26799
H        -15.67906       26.56616      100.49048
H        -13.92716       26.89690      100.22499
H        -15.52964       26.82322       98.04385
H        -14.13363       25.67127       98.05156
H        -17.01635       24.98435       98.93584
H        -15.96365       24.24069       97.64822
N        -16.01885       24.75706      102.44163
C        -16.41113       24.73825      103.84700
C        -15.98132       23.43952      104.49915
O        -15.25917       23.47609      105.48550
C        -17.94322       24.91034      103.98389
C        -18.43737       26.22126      103.34780
C        -19.92416       26.37829      103.37533
O        -20.65629       25.58179      103.93924
O        -20.44293       27.39199      102.67199
H        -16.74954       24.83883      101.72259
H        -15.92773       25.59325      104.37213
H        -18.22325       24.90234      105.06054
H        -18.45438       24.06239      103.48070
H        -18.17378       26.25373      102.27489
H        -17.95889       27.09756      103.82753
N        -16.37989       22.24608      103.98332
C        -15.99729       20.97713      104.55597
H        -14.89108       20.88278      104.56470
H        -16.39352       20.89476      105.58926
H        -16.41913       20.15004      103.94472
H        -16.96570       22.23302      103.14267
Ca       -22.59725       27.74182      102.19641
O        -25.02825       27.14817      104.19723
H        -25.38307       28.07055      104.25113
H        -25.57019       26.63631      104.84886
O        -23.23563       25.74932      106.13203
H        -22.78054       26.20524      105.38057
H        -22.54169       25.67841      106.83387

Ca 1.0



