%chk=holoCaM-CaMKII.loop3.water3.frame7.chk
%nprocshared=20
%mem=10GB
%nosave
#b3lyp/svp scf=(tight,noincore,xqc) Test 
#IOP(5/87=12) Density=Current Pop=(MK,readradii) iop(6/33=2) iop(6/42=6)

holoCaM-CaMKII.loop3.water3.frame7 

   0  1 
C         68.87035       63.16332       29.88311
C         69.07507       62.16634       30.98112
O         69.70947       61.14912       30.74974
H         68.26348       64.02649       30.23059
H         69.85157       63.53416       29.52573
H         68.32954       62.67343       29.04649
N         68.55225       62.38887       32.21472
C         68.64259       61.42013       33.29667
C         67.87805       60.16731       32.88377
O         66.69168       60.27899       32.60457
C         68.04689       62.06077       34.56725
C         68.15052       61.23211       35.80106
O         67.61495       61.70556       36.93378
O         68.71488       60.15390       35.80156
H         68.05218       63.27680       32.38123
H         69.71483       61.19040       33.49353
H         66.97478       62.29478       34.39391
H         68.58357       63.01237       34.77865
N         68.49215       58.94874       32.80019
C         67.81354       57.75124       32.29770
C         67.38667       56.80210       33.40951
O         66.68576       55.84504       33.11316
C         68.71419       56.98046       31.30420
C         69.30588       57.81019       30.15567
C         68.24228       58.47958       29.28013
C         68.89273       59.19912       28.09072
N         67.88299       59.86460       27.26998
H         69.47620       58.87444       33.08845
H         66.87643       58.05215       31.78130
H         68.13255       56.13556       30.87329
H         69.57373       56.54823       31.86422
H         69.91318       57.12060       29.52825
H         69.99119       58.57984       30.56749
H         67.67599       59.21862       29.88614
H         67.53801       57.70966       28.89731
H         69.44481       58.46003       27.46817
H         69.62199       59.95498       28.45495
H         67.37842       60.58397       27.83733
H         68.35369       60.33709       26.46490
H         67.20032       59.16331       26.90142
N         67.75880       57.00323       34.70418
C         67.33093       56.16055       35.82135
C         66.51195       56.93956       36.84264
O         66.03078       56.32828       37.78766
C         68.54919       55.45673       36.47008
C         69.66731       56.35238       36.97201
O         69.59492       57.69642       36.85503
O         70.67311       55.83551       37.42431
H         68.37084       57.79714       34.90565
H         66.65598       55.35627       35.45341
H         68.98737       54.78660       35.69813
H         68.19316       54.81339       37.30471
N         66.28303       58.27643       36.71422
C         65.45971       59.04768       37.62216
C         65.93401       58.99188       39.05495
O         65.12491       58.66680       39.91187
H         66.67410       58.79213       35.91772
H         64.40853       58.68992       37.56048
H         65.46745       60.10922       37.29175
N         67.21098       59.33388       39.39912
C         67.64842       59.44207       40.79573
C         68.04435       60.87664       41.14639
O         68.35809       61.13045       42.30126
C         68.80021       58.45893       41.10687
C         70.12803       58.91413       40.56026
N         71.18276       59.13877       41.38020
O         70.24968       59.09470       39.36609
H         67.87441       59.55971       38.64312
H         66.80711       59.16033       41.46333
H         68.54766       57.45144       40.70918
H         68.89641       58.36810       42.20967
H         71.10623       58.99482       42.39721
H         72.08442       59.46087       40.99737
N         68.08062       61.85525       40.19397
C         68.47276       63.22909       40.42610
C         69.73429       63.60699       39.67021
O         70.12029       64.76212       39.77715
H         67.82470       61.63745       39.23214
H         68.65825       63.41786       41.50501
H         67.63850       63.88654       40.10102
N         70.47322       62.69730       38.95461
C         71.77944       63.01548       38.38840
C         71.83815       62.80768       36.84764
O         71.33378       61.61364       36.29562
C         72.90203       62.27578       39.16451
C         73.03269       62.79434       40.59189
C         72.04057       62.54556       41.55819
C         74.15823       63.55708       40.96579
C         72.15906       63.06028       42.85345
C         74.27458       64.07115       42.26262
C         73.27158       63.82730       43.21002
O         73.36475       64.32317       44.46122
H         70.16163       61.71912       38.88343
H         72.00777       64.09683       38.51834
H         73.86348       62.48580       38.64883
H         72.75652       61.17591       39.15172
H         71.16993       61.95488       41.31671
H         74.94330       63.77140       40.25136
H         71.38100       62.86527       43.58086
H         75.14156       64.66409       42.52840
H         74.11437       64.86436       44.74837
N         73.17915       63.13275       36.33804
C         73.52168       62.81218       34.93810
C         74.99992       62.47769       34.93903
O         75.80105       63.27636       35.40665
C         73.19548       63.96717       33.93108
C         71.66277       64.19179       33.84063
C         73.77077       63.63125       32.53198
C         71.24739       65.34110       32.91669
H         73.43576       64.12162       36.56979
H         72.97593       61.91007       34.58990
H         73.68504       64.90286       34.28151
H         71.26808       64.43530       34.84686
H         71.17067       63.26006       33.48582
H         73.31862       62.69841       32.13109
H         73.60582       64.45440       31.81004
H         74.87155       63.50090       32.57378
H         71.52832       65.14807       31.86180
H         70.14262       65.45008       32.94123
H         71.70802       66.29298       33.25501
N         75.42622       61.30825       34.39026
C         76.81555       60.88299       34.34109
C         77.32947       60.98504       32.92021
O         76.58330       61.38770       32.04050
C         76.92004       59.44440       34.88001
O         76.16781       58.57381       34.07820
H         74.73400       60.70578       33.92887
H         77.45088       61.54524       34.96883
H         76.53108       59.42229       35.92161
H         77.98173       59.11665       34.88634
H         76.27430       57.66786       34.46802
N         78.61779       60.67079       32.62317
C         79.16229       60.78069       31.27556
C         78.44903       59.84314       30.31776
O         77.92924       60.30358       29.31163
C         80.66305       60.47514       31.28405
H         79.23832       60.36563       33.38953
H         79.04631       61.83069       30.92239
H         80.86064       59.44295       31.64281
H         81.07978       60.58941       30.26081
H         81.18550       61.18957       31.95580
N         78.38970       58.50664       30.57712
C         77.76551       57.53558       29.68322
C         76.30802       57.86143       29.40662
O         75.91624       57.80857       28.24875
C         77.90258       56.12098       30.25350
H         78.81984       58.16397       31.45025
H         78.31300       57.53435       28.71358
H         77.47626       55.38096       29.54206
H         78.97965       55.87931       30.39047
H         77.38508       56.02990       31.23103
N         75.45758       58.25275       30.40107
C         74.06449       58.62793       30.14439
C         74.00220       59.73285       29.10239
O         73.37586       59.53465       28.07016
C         73.33997       59.06175       31.44205
C         73.17754       57.88027       32.41505
C         72.43741       58.26325       33.66486
O         71.40462       57.68775       33.96406
O         72.93146       59.19988       34.49213
H         75.83072       58.32462       31.35961
H         73.51848       57.74743       29.73662
H         72.32240       59.42839       31.18069
H         73.89212       59.89773       31.92184
H         74.16769       57.48109       32.70953
H         72.61443       57.07087       31.90036
N         74.66595       60.90505       29.28141
C         74.68490       61.94397       28.27530
H         75.31485       62.79209       28.61890
H         75.11802       61.54676       27.33150
H         73.65517       62.31200       28.08624
H         75.19979       61.05412       30.14365
Ca        71.14964       59.39911       36.93522
O         72.82735       57.24092       39.32525
H         73.00554       56.67634       40.11752
H         71.86101       57.12055       39.15960
O         73.14661       56.45207       36.12614
H         74.00600       56.42395       35.63657
H         73.30078       55.89910       36.93215
O         74.20147       59.46358       37.52036
H         74.52271       58.54939       37.31859
H         74.85919       59.81937       38.16908

Ca 1.0



