%chk=holoCaM.loop4.water3.frame64.chk
%nprocshared=20
%mem=10GB
%nosave
#b3lyp/svp scf=(tight,noincore,xqc) Test 
#IOP(5/87=12) Density=Current Pop=(MK,readradii) iop(6/33=2) iop(6/42=6)

holoCaM.loop4.water3.frame64 

   -3  1 
C         92.32615      -18.85187      118.33437
C         91.86686      -17.82596      119.32771
O         90.75948      -17.33528      119.17400
H         93.32213      -19.26138      118.60044
H         91.59815      -19.69410      118.33359
H         92.36490      -18.41367      117.31698
N         92.63483      -17.50253      120.41089
C         92.13965      -16.69084      121.51651
C         93.07935      -15.55202      121.90757
O         94.23153      -15.81111      122.22597
C         91.95427      -17.63379      122.71743
C         91.31132      -16.93445      123.86956
O         90.20434      -16.44086      123.73446
O         91.94814      -16.85239      125.05302
H         93.55421      -17.95735      120.52003
H         91.14127      -16.26907      121.26814
H         92.93554      -18.05491      123.02657
H         91.29821      -18.48128      122.42593
N         92.60384      -14.27297      122.00303
C         93.36079      -13.14196      122.55156
C         92.69830      -12.59375      123.83504
O         93.33147      -11.78531      124.49932
C         93.48403      -12.02618      121.44708
C         94.32831      -12.55591      120.25709
C         94.06909      -10.69437      121.97409
C         94.40048      -11.59876      119.06060
H         91.63505      -14.09743      121.70559
H         94.37944      -13.47445      122.85116
H         92.45851      -11.79567      121.08069
H         93.87950      -13.50019      119.88380
H         95.36270      -12.77482      120.60227
H         93.40981      -10.24062      122.73993
H         95.08737      -10.84174      122.39039
H         94.10524       -9.92157      121.18285
H         93.38144      -11.36682      118.68652
H         94.92207      -10.65400      119.31325
H         94.97969      -12.07524      118.24256
N         91.42605      -12.92518      124.21945
C         90.69778      -12.19783      125.27211
C         90.05151      -13.05711      126.35507
O         89.54836      -12.48700      127.31451
C         89.60996      -11.32755      124.59596
C         88.58324      -12.10325      123.78301
O         88.62335      -13.45595      123.71946
O         87.72846      -11.49066      123.16708
H         90.91345      -13.60944      123.65967
H         91.39332      -11.51120      125.80303
H         90.12687      -10.62160      123.90970
H         89.08519      -10.72215      125.36729
N         89.97886      -14.40985      126.26691
C         89.33071      -15.25665      127.25731
C         87.82430      -15.06571      127.41173
O         87.26506      -15.77970      128.23282
H         90.42188      -14.87118      125.47282
H         89.81789      -15.09483      128.24349
H         89.49422      -16.31867      126.97022
N         87.08894      -14.14607      126.70938
C         85.65553      -13.95934      126.95028
C         84.81125      -15.16880      126.55866
O         83.66430      -15.22794      126.97985
C         85.11080      -12.66695      126.29330
C         85.20148      -12.61326      124.79244
O         85.76384      -13.61005      124.09387
O         84.77258      -11.63837      124.19725
H         87.55450      -13.52518      126.03979
H         85.53622      -13.81542      128.04771
H         85.67259      -11.79791      126.69763
H         84.04275      -12.54817      126.57782
N         85.29522      -16.16040      125.75704
C         84.55734      -17.37569      125.44912
C         84.21382      -17.52609      123.98290
O         83.74806      -18.59997      123.62839
H         86.23898      -16.07137      125.35705
H         83.60953      -17.45006      126.02438
H         85.19606      -18.23240      125.75537
N         84.36710      -16.51163      123.07774
C         84.03931      -16.65529      121.66135
C         85.27211      -16.31623      120.78936
O         86.42730      -16.79398      121.41200
C         82.86623      -15.72652      121.28740
C         81.62259      -15.97693      122.15519
C         80.45697      -15.13708      121.69738
N         80.52714      -13.78493      121.69624
O         79.43180      -15.68772      121.32446
H         84.70524      -15.59864      123.39455
H         83.73805      -17.70549      121.44961
H         82.59075      -15.89270      120.22459
H         83.18703      -14.66851      121.40323
H         81.84428      -15.73591      123.21750
H         81.34374      -17.05190      122.09103
H         81.37810      -13.29660      122.00961
H         79.72450      -13.22170      121.37787
N         85.16091      -16.95277      119.46208
C         86.19416      -16.52150      118.49866
C         85.69879      -15.32021      117.70087
O         84.73501      -15.45486      116.95808
C         86.54283      -17.70633      117.54964
C         87.63674      -17.32495      116.53750
C         87.00804      -18.94082      118.34050
H         84.20353      -16.89806      119.04569
H         87.12603      -16.25257      119.04516
H         85.62809      -17.99547      116.98513
H         87.31020      -16.48018      115.89930
H         88.57355      -17.03892      117.06150
H         87.85320      -18.18315      115.86575
H         86.22544      -19.27638      119.05294
H         87.21308      -19.78492      117.64732
H         87.93710      -18.72004      118.90368
N         86.30373      -14.10580      117.82118
C         85.85705      -12.92242      117.08531
C         86.22758      -13.02951      115.60579
O         86.93474      -13.95357      115.23056
C         86.51377      -11.66962      117.72138
C         85.98887      -10.34821      117.22072
N         84.68470      -10.02247      117.37351
O         86.75234       -9.55076      116.69755
H         87.07104      -14.01236      118.50265
H         84.75480      -12.84486      117.20613
H         87.61292      -11.72539      117.57085
H         86.31979      -11.68081      118.81141
H         84.02755      -10.67215      117.82838
H         84.33215       -9.11256      117.04227
N         85.78547      -12.10450      114.70324
C         86.22441      -12.09132      113.30708
C         87.67887      -11.63159      113.15128
O         88.19940      -11.72717      112.04685
C         85.29148      -11.26010      112.38823
C         85.40241       -9.74542      112.48129
C         85.88615       -9.02762      111.36936
C         85.00844       -9.02315      113.62368
C         85.98016       -7.63401      111.40338
C         85.10805       -7.63044      113.65666
C         85.59152       -6.93062      112.54985
O         85.66908       -5.58579      112.59648
H         85.08655      -11.43399      115.02380
H         86.13541      -13.13951      112.94084
H         84.23645      -11.57404      112.53814
H         85.55696      -11.55763      111.34854
H         86.18937       -9.54441      110.46700
H         84.60410       -9.50413      114.49223
H         86.35081       -7.10298      110.53579
H         84.79769       -7.09424      114.54461
H         85.98521       -5.06274      111.84627
N         88.39918      -11.13652      114.20324
C         89.81090      -10.77060      114.13990
C         90.65728      -11.76667      114.93014
O         91.86920      -11.62152      114.95162
C         90.02357       -9.33427      114.65942
C         89.30900       -8.29201      113.78816
C         89.58371       -6.90294      114.29070
O         90.15175       -6.09188      113.57642
O         89.20239       -6.54381      115.53152
H         87.95313      -11.05949      115.12530
H         90.18548      -10.82025      113.09319
H         91.11244       -9.10411      114.64244
H         89.66790       -9.26135      115.71144
H         88.21246       -8.46596      113.79721
H         89.67347       -8.38282      112.74068
N         90.08452      -12.85616      115.52321
C         90.82224      -13.95881      116.11400
C         90.69540      -15.19182      115.22132
O         91.26185      -16.22023      115.57001
C         90.24399      -14.28298      117.50546
C         90.34464      -13.11784      118.49933
C         89.71673      -13.44304      119.83021
O         89.21350      -14.53506      120.04637
O         89.70605      -12.50963      120.79911
H         89.07279      -12.98243      115.48199
H         91.90341      -13.71652      116.20232
H         90.79026      -15.14951      117.93013
H         89.17427      -14.56467      117.38393
H         89.82641      -12.22893      118.08731
H         91.41245      -12.86376      118.66130
N         89.98078      -15.17665      114.05528
C         89.85238      -16.34182      113.21079
H         89.22771      -16.09664      112.32435
H         90.85385      -16.66706      112.85981
H         89.36175      -17.16411      113.77237
H         89.50224      -14.32373      113.73214
Ca        87.57141      -15.08467      122.48509
O         87.70821      -17.71168      124.10439
H         88.31382      -18.11698      124.77396
H         87.22561      -18.47627      123.70285
O         88.98757      -17.83676      121.47815
H         88.70269      -18.76952      121.31455
H         88.73934      -17.34541      120.65678
O         86.05994      -13.12831      120.91196
H         85.31347      -12.82393      121.48505
H         86.77221      -12.45549      121.05006

Ca 1.0



