%chk=holoCaM-CaMKII.loop4.water1.frame308.chk
%nprocshared=20
%mem=10GB
%nosave
#b3lyp/svp scf=(tight,noincore,xqc) Test 
#IOP(5/87=12) Density=Current Pop=(MK,readradii) iop(6/33=2) iop(6/42=6)

holoCaM-CaMKII.loop4.water1.frame308 

   -3  1 
C         39.80053       19.21247       58.19863
C         38.30292       19.29662       58.16336
O         37.75090       19.73591       57.16522
H         40.23629       20.22436       58.07495
H         40.15951       18.78988       59.16220
H         40.15165       18.55139       57.37932
N         37.57524       18.86152       59.22401
C         36.12049       18.85621       59.24994
C         35.57276       20.27739       59.23927
O         35.97871       21.07446       60.07387
C         35.65492       18.08766       60.49674
C         34.19697       17.75925       60.50566
O         33.73197       17.01372       61.51386
O         33.44724       18.09399       59.60184
H         38.08395       18.47368       60.03486
H         35.75933       18.28098       58.37077
H         35.92049       18.64554       61.42103
H         36.17944       17.10701       60.51754
N         34.61284       20.64650       58.34268
C         34.04048       21.98691       58.27191
C         32.70346       21.99546       58.99832
O         32.57385       22.72414       59.97282
C         33.91262       22.44919       56.78204
C         35.30093       22.45809       56.08849
C         33.23714       23.83363       56.69151
C         35.24491       22.77221       54.58797
H         34.22984       19.92889       57.71613
H         34.70155       22.71064       58.80170
H         33.26657       21.72080       56.24356
H         35.75884       21.45123       56.18490
H         35.97062       23.19193       56.58736
H         33.07676       24.13634       55.63750
H         32.22977       23.81292       57.15675
H         33.85189       24.60471       57.20168
H         34.88037       23.80000       54.39400
H         36.26498       22.69270       54.15640
H         34.58502       22.05484       54.05912
N         31.65553       21.23337       58.57236
C         30.33576       21.27652       59.20766
C         30.29611       20.72218       60.63899
O         29.24444       20.81487       61.25688
C         29.27593       20.59639       58.30946
C         29.50480       19.13396       58.03716
O         28.71591       18.52741       57.33076
O         30.57042       18.48681       58.54296
H         31.78498       20.66386       57.72319
H         30.03143       22.34568       59.26626
H         29.25771       21.12719       57.33202
H         28.27415       20.71759       58.77598
N         31.38380       20.16877       61.24885
C         31.38503       19.72355       62.63694
C         30.47388       18.54025       62.88239
O         29.60936       18.60388       63.74377
H         32.27199       20.09227       60.73693
H         31.12184       20.57218       63.30411
H         32.41589       19.39656       62.89859
N         30.66177       17.40472       62.16504
C         29.94641       16.14446       62.35765
C         30.92384       14.99766       62.66731
O         30.53893       13.84097       62.56040
C         29.05903       15.83191       61.12684
C         29.78796       15.70867       59.82044
O         29.17966       15.37149       58.81765
O         31.09732       15.98509       59.73438
H         31.38607       17.44699       61.44426
H         29.24020       16.21061       63.21422
H         28.29137       16.62724       61.01463
H         28.52595       14.87476       61.31855
N         32.17972       15.24811       63.14345
C         33.13579       14.21984       63.53152
C         33.82621       13.47168       62.39632
O         34.65108       12.63082       62.72217
H         32.44400       16.21948       63.35310
H         32.63964       13.49853       64.21795
H         33.95118       14.71082       64.10631
N         33.56721       13.69033       61.06989
C         34.22941       12.93304       59.99443
C         34.82091       13.83893       58.92703
O         34.64259       15.04478       58.97818
C         33.24929       11.86046       59.42875
C         31.85911       12.34615       58.94943
C         31.69631       12.83533       57.49027
N         31.35725       11.77556       56.55389
O         32.76648       13.58917       57.01202
H         32.84912       14.37788       60.81273
H         35.09053       12.36406       60.40934
H         33.04726       11.20876       60.30789
H         33.72249       11.21017       58.66194
H         31.47258       13.11285       59.64566
H         31.15351       11.49531       59.06311
H         30.48081       11.31954       56.89584
H         31.06759       12.24702       55.66877
N         35.55943       13.29024       57.91662
C         36.06317       14.03358       56.76334
C         35.52498       13.35070       55.51070
O         35.76493       12.16270       55.34990
C         37.61809       14.06353       56.75356
C         38.14837       14.84054       55.53171
C         38.16800       14.72055       58.03079
H         35.75368       12.27860       57.95033
H         35.71990       15.08661       56.79544
H         38.00670       13.02233       56.70456
H         37.79068       15.89353       55.54834
H         39.25952       14.84509       55.52901
H         37.81580       14.37011       54.58325
H         37.84905       14.15760       58.93221
H         39.27961       14.72369       58.01112
H         37.81385       15.77096       58.11935
N         34.81040       14.04223       54.57213
C         34.28291       13.41795       53.35332
C         35.03886       13.91670       52.13636
O         35.99058       14.65098       52.30617
C         32.74951       13.60229       53.22115
C         32.26746       14.93504       52.68958
N         32.41426       16.08224       53.38335
O         31.69960       14.96536       51.60760
H         34.68252       15.05122       54.70820
H         34.44562       12.31971       53.40004
H         32.25981       13.37479       54.18456
H         32.39757       12.83307       52.49902
H         32.84571       16.09095       54.31267
H         32.05861       16.96741       52.99266
N         34.68642       13.53877       50.87524
C         35.40306       13.96745       49.67420
C         35.40811       15.47989       49.49509
O         36.47886       16.03623       49.29441
C         34.77638       13.31105       48.42404
C         35.48652       13.72372       47.15241
C         36.84706       13.42538       46.95968
C         34.79180       14.42549       46.15264
C         37.49998       13.82736       45.79055
C         35.44641       14.82476       44.98412
C         36.80423       14.52772       44.79986
O         37.44869       14.90972       43.67891
H         33.88308       12.90388       50.76435
H         36.45579       13.61547       49.74802
H         33.70270       13.59789       48.37086
H         34.82507       12.20505       48.52112
H         37.40524       12.88610       47.71419
H         33.74443       14.67016       46.27845
H         38.54907       13.59554       45.65573
H         34.89762       15.36713       44.22461
H         37.00379       15.39634       42.97031
N         34.25149       16.20070       49.49938
C         34.19689       17.63274       49.19973
C         35.12654       18.41827       50.11661
O         35.95831       19.16721       49.62437
C         32.73778       18.13662       49.27869
C         32.56706       19.51378       48.61882
C         31.12663       19.94134       48.63483
O         30.52379       20.11040       47.58622
O         30.49381       20.14544       49.80559
H         33.37200       15.69964       49.69600
H         34.53301       17.76538       48.14645
H         32.38842       18.14739       50.33539
H         32.09296       17.43144       48.70805
H         32.90763       19.44257       47.56071
H         33.18110       20.28063       49.13487
N         35.09764       18.20558       51.46149
C         36.04946       18.78918       52.41252
C         37.48043       18.48331       51.98788
O         38.27875       19.40247       51.87170
C         35.77556       18.22694       53.82989
C         34.43146       18.74650       54.37957
C         34.01621       18.12478       55.68186
O         32.83952       18.47914       56.23207
O         34.70666       17.28558       56.23389
H         34.40519       17.52593       51.81048
H         35.93500       19.89570       52.44968
H         36.57813       18.53825       54.53472
H         35.77283       17.11487       53.77972
H         33.62000       18.55333       53.65515
H         34.50448       19.84045       54.52420
N         37.85724       17.21391       51.69231
C         39.18121       16.85747       51.23540
H         39.92894       17.07822       52.02389
H         39.21551       15.76961       51.00417
H         39.42743       17.41671       50.30796
H         37.16066       16.47535       51.75545
Ca        32.18972       15.55641       57.87005
O         30.39870       16.04210       55.65662
H         30.34750       17.02919       55.70986
H         29.72558       15.79144       54.97633

Ca 1.0



