%chk=holoCaM.loop2.water2.frame24.chk
%nprocshared=20
%mem=10GB
%nosave
#b3lyp/svp scf=(tight,noincore,xqc) Test 
#IOP(5/87=12) Density=Current Pop=(MK,readradii) iop(6/33=2) iop(6/42=6)

holoCaM.loop2.water2.frame24 

   -2  1 
C         79.20622      -13.42646        5.43999
C         78.71101      -14.55573        4.57725
O         77.78681      -15.24768        4.97508
H         80.04430      -12.88044        4.95482
H         78.38329      -12.70256        5.61891
H         79.56488      -13.82083        6.41281
N         79.28280      -14.79020        3.36545
C         78.83893      -15.82381        2.43313
C         78.95651      -17.22129        3.02647
O         80.02909      -17.60518        3.46966
C         79.63168      -15.68193        1.12138
C         79.33163      -16.71651        0.06991
O         80.26342      -17.32654       -0.42939
O         78.07947      -16.99436       -0.35468
H         80.05866      -14.17306        3.07731
H         77.78250      -15.62524        2.18335
H         80.72231      -15.71153        1.34079
H         79.40236      -14.68324        0.69563
N         77.86420      -18.04184        3.02887
C         77.82041      -19.38736        3.57975
C         77.55789      -20.45183        2.51251
O         77.46284      -21.61247        2.88942
C         76.69151      -19.43781        4.62225
H         76.99365      -17.69612        2.61628
H         78.77975      -19.63596        4.08243
H         75.71054      -19.22784        4.13866
H         76.63628      -20.43959        5.09946
H         76.85898      -18.68032        5.41642
N         77.43045      -20.16353        1.17802
C         77.05213      -21.19019        0.19687
C         77.40613      -20.88388       -1.27117
O         77.04670      -21.68775       -2.12079
C         75.54397      -21.51000        0.35210
C         74.61969      -20.34889        0.07677
O         75.05051      -19.24949       -0.23077
O         73.28979      -20.52812        0.18173
H         77.52118      -19.18830        0.87719
H         77.61918      -22.12153        0.42009
H         75.34851      -21.85932        1.38779
H         75.27620      -22.34286       -0.33260
N         78.15811      -19.81204       -1.65230
C         78.59017      -19.56551       -3.02337
C         77.50243      -19.18760       -4.01936
O         77.84830      -19.01457       -5.17981
H         78.54562      -19.19639       -0.93936
H         79.12363      -20.46788       -3.39145
H         79.31961      -18.72521       -3.01776
N         76.18947      -19.03186       -3.67847
C         75.14556      -18.70053       -4.65735
C         75.22839      -17.27724       -5.24691
O         74.36287      -16.93415       -6.04109
C         73.73939      -18.94854       -4.06107
C         73.34867      -18.07464       -2.89815
N         72.09022      -18.14896       -2.41441
O         74.14533      -17.29912       -2.39316
H         75.90953      -19.21170       -2.70588
H         75.22679      -19.42198       -5.50092
H         73.65562      -20.00985       -3.74009
H         72.99359      -18.78713       -4.86983
H         71.40219      -18.79483       -2.82768
H         71.79507      -17.54378       -1.64149
N         76.23114      -16.40489       -4.93940
C         76.35047      -15.06114       -5.49814
C         75.42015      -14.01614       -4.88885
O         75.56215      -12.85705       -5.25062
H         76.99939      -16.71920       -4.34002
H         76.24568      -15.09664       -6.60496
H         77.37896      -14.70005       -5.27932
N         74.47058      -14.32561       -3.95899
C         73.60485      -13.34549       -3.30178
C         73.65280      -13.50061       -1.78732
O         73.43526      -14.59618       -1.29524
C         72.13575      -13.52416       -3.75583
C         71.92792      -13.07084       -5.19970
O         71.72327      -14.86251       -3.62814
H         74.33165      -15.30798       -3.70823
H         73.89460      -12.30234       -3.55998
H         71.48283      -12.85532       -3.14260
H         71.34949      -14.97195       -2.71569
H         70.85519      -13.17499       -5.46959
H         72.20383      -11.99825       -5.30246
H         72.53968      -13.67388       -5.90094
N         73.82084      -12.41196       -0.98096
C         73.62745      -12.45312        0.47218
C         72.21858      -12.94523        0.80436
O         71.25033      -12.46261        0.23235
C         73.94930      -11.05834        1.11684
C         75.49613      -10.89045        1.15441
C         73.35743      -10.91698        2.53495
C         76.00358       -9.58365        1.76516
H         74.00895      -11.50026       -1.42561
H         74.33004      -13.18232        0.91942
H         73.48022      -10.25268        0.50939
H         75.89623      -10.96112        0.12107
H         75.93552      -11.71958        1.75407
H         72.25154      -11.01030        2.51169
H         73.77513      -11.68131        3.21107
H         73.55359       -9.91130        2.95653
H         75.61835       -8.71230        1.19882
H         75.71908       -9.49683        2.83398
H         77.11430       -9.57704        1.72963
N         72.05497      -13.87740        1.79161
C         70.77874      -14.43124        2.23235
C         70.43088      -13.90074        3.61205
O         71.18711      -13.10396        4.15023
C         70.87135      -15.97280        2.30715
C         71.23593      -16.61057        1.00566
O         72.44053      -16.37603        0.45657
O         70.46576      -17.39155        0.47040
H         72.88938      -14.18322        2.30845
H         69.96138      -14.13462        1.53797
H         69.89607      -16.38767        2.63672
H         71.63909      -16.26831        3.05507
N         69.28225      -14.27592        4.24331
C         68.89895      -13.77356        5.55654
C         69.87572      -14.20644        6.65671
O         70.32919      -13.31830        7.36184
C         67.43023      -14.12245        5.89054
C         66.96511      -13.46689        7.17114
C         66.96498      -12.06444        7.29752
C         66.51523      -14.24952        8.24829
C         66.52987      -11.46080        8.47955
C         66.07675      -13.63994        9.42819
C         66.08519      -12.24736        9.54401
H         68.63061      -14.90765        3.75069
H         68.92313      -12.66287        5.49412
H         67.27708      -15.21285        5.94774
H         66.78100      -13.75510        5.06643
H         67.29800      -11.43383        6.48349
H         66.50156      -15.32992        8.17612
H         66.53533      -10.38196        8.56795
H         65.72899      -14.24754       10.25322
H         65.74529      -11.77701       10.45734
N         70.28301      -15.50805        6.87433
C         71.22155      -15.90206        7.93332
C         72.60625      -15.27656        7.84900
O         73.43072      -15.56164        8.70915
C         71.38164      -17.41619        7.74216
C         70.05108      -17.80396        7.14943
C         69.82797      -16.67400        6.14903
H         70.74078      -15.66517        8.90819
H         72.13681      -17.61324        6.94379
H         71.69172      -17.96656        8.65697
H         70.01699      -18.82379        6.71179
H         69.28332      -17.72507        7.95304
H         70.46888      -16.80300        5.24912
H         68.76602      -16.67149        5.86559
N         72.94256      -14.43863        6.83436
C         74.24917      -13.84914        6.64589
C         74.16939      -12.38111        7.01489
O         74.94066      -11.93581        7.85131
C         74.66553      -14.00679        5.17644
C         74.55375      -15.44581        4.63651
C         74.98534      -15.50050        3.19862
O         75.49220      -14.52641        2.66616
O         74.84548      -16.62251        2.47780
H         72.25087      -14.20759        6.11754
H         75.01201      -14.34856        7.28525
H         75.69855      -13.61520        5.05563
H         73.98634      -13.39926        4.54856
H         73.49503      -15.77769        4.69243
H         75.17708      -16.14805        5.22982
N         73.21430      -11.58202        6.45483
C         73.01783      -10.18982        6.79074
H         72.00185      -10.06575        7.22407
H         73.76293       -9.82259        7.52472
H         73.08616       -9.57837        5.86705
H         72.55882      -11.97926        5.77363
Ca        76.09882      -16.52792        0.60954
O         76.83097      -15.40536       -2.20944
H         76.84407      -14.47669       -2.54634
H         77.72573      -15.75418       -2.44856
O         77.20358      -13.43363       -0.21515
H         76.56329      -13.88975        0.38373
H         77.75619      -12.87756        0.38724

Ca 1.0



