%chk=holoCaM-CaMKII.loop3.water1.frame311.chk
%nprocshared=20
%mem=10GB
%nosave
#b3lyp/svp scf=(tight,noincore,xqc) Test 
#IOP(5/87=12) Density=Current Pop=(MK,readradii) iop(6/33=2) iop(6/42=6)

holoCaM-CaMKII.loop3.water1.frame311 

   0  1 
C         43.68213       14.66546       45.58438
C         42.40399       15.32376       46.01719
O         41.71748       14.77167       46.86360
H         44.35268       14.53741       46.45950
H         43.45676       13.67034       45.14679
H         44.21276       15.27163       44.81997
N         42.02629       16.51714       45.47559
C         40.79866       17.22666       45.83523
C         39.59749       16.36046       45.44258
O         39.27340       16.26415       44.26755
C         40.81877       18.59653       45.10398
C         39.75331       19.64529       45.31467
O         39.78345       20.61711       44.57784
O         38.80765       19.61179       46.27447
H         42.66072       16.94616       44.78389
H         40.82874       17.39549       46.93312
H         40.82740       18.36884       44.01628
H         41.77979       19.10187       45.34711
N         38.98112       15.59506       46.38619
C         37.91226       14.63094       46.12112
C         36.62765       15.30144       45.65510
O         35.83472       14.65162       44.98842
C         37.65042       13.80512       47.41119
C         36.71045       12.59984       47.23513
C         36.60901       11.80467       48.54933
C         35.74336       10.54666       48.38877
N         35.69848        9.77960       49.63497
H         39.36590       15.63757       47.33303
H         38.27663       13.93488       45.33324
H         37.25027       14.47332       48.20616
H         38.62921       13.40473       47.75778
H         37.12514       11.93726       46.44455
H         35.69644       12.93545       46.93034
H         36.17601       12.45161       49.34431
H         37.62867       11.49171       48.86487
H         36.16956        9.90479       47.58582
H         34.71010       10.83688       48.09596
H         36.66233        9.47470       49.90486
H         35.28529       10.35777       50.40226
H         35.10588        8.92941       49.49478
N         36.31577       16.56678       46.05381
C         35.04775       17.22923       45.76671
C         35.23105       18.54420       45.00497
O         34.23958       19.22327       44.77522
C         34.26883       17.38359       47.09237
C         35.01754       18.11927       48.16465
O         35.30432       19.29096       48.01856
O         35.36099       17.48782       49.30393
H         36.98358       17.07375       46.64751
H         34.40392       16.59501       45.11854
H         34.05793       16.36009       47.47289
H         33.29242       17.88269       46.91348
N         36.44357       18.92861       44.50500
C         36.62895       20.09494       43.65081
C         36.50253       21.44746       44.33169
O         36.64356       22.43673       43.62554
H         37.26031       18.31657       44.63234
H         35.90733       20.03835       42.80586
H         37.64615       20.05202       43.20821
N         36.23104       21.60188       45.66202
C         36.03218       22.92632       46.25627
C         37.30621       23.77008       46.30107
O         37.19979       24.97870       46.45177
C         35.40586       22.83646       47.65957
C         36.38573       22.37600       48.71115
N         36.66187       23.16422       49.77124
O         36.94542       21.29629       48.60681
H         36.08857       20.76684       46.23922
H         35.28139       23.43770       45.61163
H         34.52849       22.15454       47.62948
H         35.02986       23.84531       47.93699
H         36.21298       24.08465       49.88913
H         37.33150       22.84110       50.47715
N         38.53972       23.19442       46.20590
C         39.78604       23.94019       46.14548
C         40.81677       23.53486       47.18591
O         41.95787       23.93989       47.00365
H         38.60723       22.17495       46.12104
H         39.63172       25.03985       46.19168
H         40.22895       23.71389       45.15142
N         40.53307       22.77878       48.29413
C         41.57676       22.34439       49.23322
C         41.53848       20.84051       49.46954
O         40.64427       20.17344       48.96660
C         41.53069       23.16572       50.54828
C         40.31282       22.99718       51.43364
C         40.01392       21.76289       52.04129
C         39.49019       24.10381       51.71172
C         38.91148       21.63355       52.88703
C         38.39098       23.97430       52.56851
C         38.09577       22.73439       53.15415
O         37.03533       22.58860       53.97309
H         39.55442       22.51874       48.49049
H         42.57766       22.55821       48.79673
H         41.64129       24.23491       50.26070
H         42.42039       22.91776       51.16506
H         40.63026       20.89427       51.88392
H         39.70055       25.07081       51.27223
H         38.69571       20.67531       53.34118
H         37.76715       24.83529       52.77066
H         36.44003       23.32261       54.17964
N         42.49603       20.24099       50.23730
C         42.53979       18.81169       50.54627
C         42.53218       18.63426       52.06477
O         43.36099       19.24513       52.72889
C         43.83079       18.17141       49.95565
C         43.98768       18.48774       48.44495
C         43.80953       16.64311       50.19169
C         45.34998       18.06485       47.88745
H         43.25401       20.82913       50.61887
H         41.66826       18.28476       50.09372
H         44.70400       18.61567       50.48378
H         43.92694       19.58529       48.28832
H         43.17147       18.01095       47.86051
H         44.74276       16.15920       49.84618
H         43.71505       16.40454       51.27008
H         42.95029       16.18188       49.65582
H         45.42737       18.37107       46.82356
H         46.16289       18.56765       48.45579
H         45.49693       16.96827       47.93432
N         41.66903       17.77299       52.67677
C         41.64072       17.53693       54.12293
C         42.10344       16.12202       54.45540
O         42.49881       15.39943       53.55493
C         40.22638       17.80870       54.65584
O         39.32298       16.87530       54.12886
H         41.02253       17.23020       52.08761
H         42.33170       18.23328       54.64701
H         39.94346       18.84903       54.37561
H         40.20179       17.74350       55.76358
H         38.46536       17.35025       53.98103
N         42.10964       15.66818       55.74218
C         42.60484       14.35011       56.13990
C         41.84823       13.20858       55.48380
O         42.48095       12.39130       54.82972
C         42.52602       14.18750       57.66251
H         41.77938       16.30474       56.48342
H         43.67902       14.27511       55.85559
H         43.12818       14.97602       58.16044
H         41.47568       14.26595       58.01635
H         42.93015       13.19643       57.96266
N         40.49787       13.07247       55.63163
C         39.75007       11.95009       55.06260
C         39.92869       11.85378       53.56375
O         39.85299       10.76090       53.01884
C         38.25466       12.08474       55.37313
H         39.98829       13.79019       56.16958
H         40.12069       11.00826       55.52332
H         37.69327       11.21816       54.96117
H         38.09245       12.11871       56.47055
H         37.84741       13.01662       54.92178
N         40.12606       12.97719       52.83015
C         40.27614       12.97249       51.38581
C         41.57643       12.28256       51.01002
O         41.54357       11.31075       50.26824
C         40.19361       14.41423       50.85167
C         38.83726       15.05430       51.24841
C         38.68910       16.40310       50.64309
O         38.56560       17.41005       51.31994
O         38.68782       16.47627       49.31592
H         40.15403       13.87817       53.32745
H         39.42111       12.42525       50.92673
H         40.28522       14.38373       49.74276
H         41.03091       15.02632       51.24946
H         38.73389       15.14359       52.34523
H         38.00297       14.42249       50.87504
N         42.76026       12.70604       51.53194
C         44.01765       12.04069       51.27148
H         44.83264       12.54310       51.83733
H         43.96273       10.98343       51.60908
H         44.25680       12.07907       50.18903
H         42.77025       13.51068       52.16654
Ca        38.72003       18.28279       48.04865
O         36.33865       19.37936       51.68240
H         36.34489       18.72029       52.42164
H         35.38787       19.63922       51.59022

Ca 1.0



