%chk=holoCaM-CaMKII.loop4.water2.frame43.chk
%nprocshared=20
%mem=10GB
%nosave
#b3lyp/svp scf=(tight,noincore,xqc) Test 
#IOP(5/87=12) Density=Current Pop=(MK,readradii) iop(6/33=2) iop(6/42=6)

holoCaM-CaMKII.loop4.water2.frame43 

   -3  1 
C         12.73052       57.43400       -6.14227
C         13.83371       56.46525       -6.43055
O         14.98274       56.86477       -6.53229
H         11.78014       56.89778       -5.92230
H         12.98639       58.03300       -5.24424
H         12.57492       58.08615       -7.02121
N         13.53487       55.14988       -6.52586
C         14.50897       54.08473       -6.63740
C         15.09993       53.95688       -8.04203
O         14.60957       53.15403       -8.82625
C         13.77876       52.80599       -6.20741
C         14.71860       51.70885       -5.98952
O         14.32262       50.70160       -5.46367
O         16.00543       51.88611       -6.29615
H         12.54540       54.88342       -6.39988
H         15.32203       54.25197       -5.88875
H         12.98330       52.51742       -6.92729
H         13.31764       52.99551       -5.21297
N         16.14855       54.73275       -8.43707
C         16.62353       54.74363       -9.81945
C         17.41431       53.48836      -10.23443
O         17.58229       53.29992      -11.43113
C         17.36193       56.08787      -10.12886
C         17.58033       56.35612      -11.63843
C         18.70567       56.19483       -9.38704
C         16.27426       56.47435      -12.43368
H         16.51649       55.41994       -7.76825
H         15.69645       54.75413      -10.42352
H         16.71633       56.91561       -9.75621
H         18.22682       55.57645      -12.08755
H         18.10680       57.32957      -11.74956
H         19.40522       55.38884       -9.69257
H         19.18190       57.17802       -9.58731
H         18.55409       56.14182       -8.29810
H         15.65182       57.30239      -12.03030
H         16.50805       56.69381      -13.49531
H         15.68483       55.53706      -12.42019
N         17.91821       52.58715       -9.33204
C         18.62845       51.36117       -9.72672
C         17.85921       50.08439       -9.33776
O         18.32585       49.00400       -9.67030
C         20.11941       51.39485       -9.28522
C         20.41904       51.47386       -7.81559
O         21.57895       51.51623       -7.44196
O         19.44287       51.47929       -6.90497
H         17.79034       52.76713       -8.32926
H         18.68903       51.30452      -10.83679
H         20.59688       52.27522       -9.76871
H         20.62684       50.48392       -9.67392
N         16.61294       50.13703       -8.77372
C         15.69983       48.99734       -8.70242
C         16.02665       47.88064       -7.72279
O         16.28992       46.77132       -8.16316
H         16.20834       51.05287       -8.55155
H         15.60781       48.57714       -9.72666
H         14.68906       49.36791       -8.42238
N         15.93084       48.08104       -6.37740
C         16.07272       47.03143       -5.35942
C         14.98791       47.05304       -4.25220
O         15.04119       46.19569       -3.38100
C         17.49023       47.11430       -4.75985
C         17.95397       48.51154       -4.47180
O         17.29761       49.29060       -3.60231
O         18.93672       48.94976       -5.04820
H         15.78771       49.04086       -6.05919
H         15.98899       46.02469       -5.82596
H         18.19115       46.69797       -5.51324
H         17.56548       46.49116       -3.84431
N         13.98560       47.97536       -4.21204
C         12.96544       48.07242       -3.17422
C         13.28601       49.09880       -2.10067
O         12.43397       49.31051       -1.24869
H         13.90057       48.62842       -4.97829
H         12.75412       47.08575       -2.71273
H         12.02351       48.41457       -3.65976
N         14.47837       49.76306       -2.05144
C         14.77069       50.80166       -1.06612
C         15.40515       52.01567       -1.70982
O         15.89575       51.94277       -2.82894
C         15.65344       50.28032        0.08851
C         14.93364       49.17759        0.88348
C         15.64901       48.77568        2.15013
N         15.09877       47.83973        2.95740
O         16.70842       49.29807        2.46640
H         15.19398       49.53398       -2.74181
H         13.81689       51.16175       -0.62548
H         15.84903       51.12711        0.78328
H         16.63187       49.90659       -0.28921
H         14.80483       48.28113        0.23991
H         13.93090       49.55226        1.18273
H         14.20265       47.39466        2.70912
H         15.56303       47.56414        3.83532
N         15.40556       53.19276       -1.02511
C         15.95245       54.43272       -1.54268
C         17.12611       54.82073       -0.67091
O         16.96798       55.15372        0.49534
C         14.82932       55.50096       -1.63153
C         15.32993       56.92600       -1.91655
C         13.84542       55.09514       -2.74237
H         14.97976       53.21812       -0.08612
H         16.33574       54.28396       -2.57582
H         14.30179       55.53580       -0.65394
H         15.82748       56.99067       -2.90072
H         14.46563       57.62515       -1.92717
H         16.02310       57.27372       -1.12258
H         13.00100       55.81124       -2.80181
H         14.36843       55.08938       -3.72466
H         13.43605       54.07967       -2.56348
N         18.36500       54.74221       -1.21835
C         19.61996       55.08202       -0.57423
C         19.63776       56.57638       -0.28438
O         18.80703       57.29545       -0.81768
C         20.73612       54.69378       -1.59057
C         22.17519       54.66421       -1.17099
N         23.11397       54.39681       -2.10960
O         22.50829       54.84016       -0.01183
H         18.41737       54.38791       -2.17166
H         19.70054       54.48117        0.35840
H         20.63948       55.36925       -2.46798
H         20.53684       53.65890       -1.94567
H         22.84121       54.25155       -3.09458
H         24.11281       54.35332       -1.86498
N         20.55792       57.11683        0.55285
C         20.68065       58.54932        0.80800
C         20.99881       59.31475       -0.47547
O         20.39343       60.35353       -0.69662
C         21.76134       58.77922        1.88032
C         21.97590       60.24336        2.16517
C         20.93651       61.03912        2.67701
C         23.22424       60.82749        1.90175
C         21.14129       62.40310        2.90236
C         23.42582       62.19049        2.12543
C         22.38168       62.98518        2.62002
O         22.55664       64.30626        2.82141
H         21.19405       56.47740        1.04501
H         19.71800       58.93495        1.21573
H         22.70724       58.31222        1.53073
H         21.45583       58.26871        2.82084
H         19.96704       60.60825        2.89417
H         24.03870       60.22993        1.51083
H         20.33197       63.00970        3.28849
H         24.39183       62.62698        1.90691
H         23.38936       64.75182        2.61001
N         21.91645       58.85729       -1.37539
C         22.14638       59.50982       -2.66907
C         20.86563       59.58960       -3.49681
O         20.62918       60.62226       -4.10982
C         23.30870       58.88217       -3.48838
C         23.28505       57.35362       -3.65247
C         24.34959       56.89785       -4.61157
O         24.28083       57.20206       -5.79199
O         25.37465       56.13743       -4.18041
H         22.42521       57.99552       -1.14047
H         22.46782       60.56018       -2.49129
H         24.27150       59.13651       -2.99238
H         23.31558       59.37199       -4.48877
H         22.30709       56.99193       -4.02317
H         23.49254       56.89631       -2.66602
N         19.99075       58.54827       -3.55820
C         18.73914       58.60596       -4.31597
C         17.70435       59.51686       -3.65025
O         16.76137       59.92726       -4.31279
C         18.16101       57.18683       -4.48921
C         19.14354       56.28158       -5.25154
C         18.60512       54.89624       -5.44604
O         18.50562       54.42516       -6.56193
O         18.27071       54.14021       -4.39521
H         20.22692       57.68880       -3.04488
H         18.96145       59.00376       -5.33261
H         17.20386       57.23999       -5.05198
H         17.96768       56.75064       -3.48559
H         20.09629       56.19276       -4.69550
H         19.36661       56.73804       -6.23723
N         17.80664       59.85299       -2.33541
C         16.86805       60.70326       -1.63714
H         15.86433       60.23046       -1.60818
H         17.21409       60.85015       -0.58888
H         16.81213       61.69737       -2.12617
H         18.57674       59.47361       -1.78891
Ca        17.91520       51.47475       -5.30890
O         20.93697       52.52092       -4.52594
H         21.56078       52.17907       -3.83889
H         21.52922       52.81026       -5.26215
O         19.09694       51.19239       -2.28550
H         20.07840       51.20796       -2.39780
H         18.92929       50.34459       -1.80421

Ca 1.0



