%chk=holoCaM-CaMKII.loop2.water2.frame102.chk
%nprocshared=20
%mem=10GB
%nosave
#b3lyp/svp scf=(tight,noincore,xqc) Test 
#IOP(5/87=12) Density=Current Pop=(MK,readradii) iop(6/33=2) iop(6/42=6)

holoCaM-CaMKII.loop2.water2.frame102 

   -2  1 
C         11.72467       45.31823       38.07101
C         11.46632       44.84019       36.66996
O         12.15253       45.24493       35.74345
H         12.54341       46.06512       38.10507
H         10.80094       45.76275       38.49851
H         12.01480       44.44502       38.69689
N         10.48059       43.93151       36.46736
C         10.19641       43.26999       35.19946
C          9.75821       44.22821       34.09520
O          8.87903       45.04685       34.32571
C          9.07183       42.25002       35.43706
C          8.87693       41.29995       34.30150
O          7.80863       40.72096       34.21066
O          9.87629       41.02827       33.42727
H          9.93723       43.64512       37.29801
H         11.10712       42.71628       34.89090
H          8.12702       42.80592       35.63355
H          9.27710       41.62446       36.32980
N         10.27660       44.10284       32.83783
C          9.86550       44.90135       31.68902
C          9.24204       44.05924       30.56273
O          8.82933       44.66232       29.58111
C         11.09609       45.65280       31.16044
H         10.99048       43.38698       32.67811
H          9.10610       45.65346       31.99378
H         11.51878       46.29921       31.95939
H         11.88261       44.93378       30.84026
H         10.83245       46.29781       30.29537
N          9.16810       42.68738       30.59490
C          8.70920       41.88688       29.44985
C          7.83773       40.66009       29.78947
O          7.37389       40.01914       28.85609
C          9.93386       41.48703       28.60104
C         10.94500       40.61223       29.30087
O         11.96085       40.28635       28.70941
O         10.76037       40.18958       30.56533
H          9.59983       42.19978       31.38070
H          8.07566       42.52671       28.79581
H         10.44914       42.42212       28.28931
H          9.58986       40.96887       27.67990
N          7.53769       40.28507       31.06653
C          6.62351       39.19026       31.40111
C          7.12091       37.77583       31.12538
O          6.33668       36.85404       31.30410
H          7.89584       40.85303       31.83428
H          5.66750       39.35723       30.86115
H          6.39878       39.22538       32.48884
N          8.39221       37.50987       30.71747
C          8.89993       36.16157       30.42962
C          9.04426       35.22367       31.64975
O          9.55246       34.12517       31.46624
C         10.24860       36.26662       29.67684
C         11.37156       36.91238       30.44171
N         12.60238       36.96238       29.89416
O         11.18702       37.39054       31.54775
H          9.01684       38.30901       30.55503
H          8.20807       35.67099       29.71002
H         10.09821       36.84770       28.74148
H         10.57380       35.24358       29.38867
H         12.78345       36.57688       28.95747
H         13.38082       37.36836       30.42019
N          8.60768       35.54814       32.90187
C          8.73475       34.66735       34.05883
C         10.11112       34.67482       34.70197
O         10.27057       33.99889       35.70899
H          8.09441       36.41983       33.04564
H          8.41943       33.63441       33.79186
H          8.04187       35.02963       34.84854
N         11.14339       35.41499       34.20435
C         12.45961       35.49918       34.82064
C         12.83752       36.98928       35.10064
O         13.06731       37.72684       33.92867
C         13.50609       34.71818       33.95684
C         13.26132       33.21210       34.07405
O         13.45117       35.03161       32.58604
H         11.00272       35.94152       33.34295
H         12.44270       35.01693       35.82458
H         14.53433       34.89666       34.33723
H         13.36041       36.00384       32.47349
H         13.34457       32.88271       35.13173
H         12.25459       32.94703       33.68762
H         14.02110       32.66260       33.47817
N         13.96924       37.07618       36.04832
C         14.79972       38.29342       36.02250
C         15.80730       38.21936       34.87356
O         16.53585       37.24059       34.78166
C         15.53823       38.44381       37.39004
C         14.54203       38.34193       38.57834
C         16.28749       39.79402       37.43394
C         15.22945       38.23697       39.94396
H         14.55087       36.21089       36.12726
H         14.14409       39.18305       35.91165
H         16.26780       37.60857       37.48834
H         13.93794       37.41492       38.48530
H         13.84550       39.20793       38.56590
H         17.03701       39.85273       36.62501
H         15.57088       40.63657       37.31190
H         16.83907       39.93845       38.38228
H         14.45773       38.14653       40.73734
H         15.86911       37.32814       39.97822
H         15.84746       39.12539       40.17573
N         15.93897       39.25630       33.99838
C         16.94940       39.30580       32.94370
C         18.15458       40.07728       33.44409
O         18.08670       40.62455       34.52221
C         16.38131       40.01383       31.69309
C         15.18394       39.33343       31.11479
O         15.21128       38.92492       29.96489
O         14.05410       39.22810       31.83702
H         15.39281       40.10436       34.17374
H         17.29072       38.27929       32.68877
H         17.16522       40.06642       30.90865
H         16.07552       41.05120       31.95670
N         19.31012       40.14507       32.73062
C         20.47450       40.92707       33.15784
C         20.15257       42.42510       33.22865
O         20.44850       43.00688       34.26357
C         21.67888       40.62000       32.23612
C         22.88679       41.50533       32.45533
C         23.30774       42.34966       31.41208
C         23.61106       41.49717       33.66192
C         24.42688       43.16818       31.56615
C         24.73876       42.31799       33.80964
C         25.14473       43.15162       32.76248
H         19.36481       39.60821       31.85191
H         20.78869       40.60270       34.17729
H         21.37000       40.70970       31.18267
H         21.97471       39.55704       32.37496
H         22.76695       42.37603       30.47431
H         23.31459       40.85367       34.48046
H         24.73729       43.81227       30.75349
H         25.30324       42.30813       34.73340
H         26.01593       43.78458       32.87452
N         19.55782       43.13426       32.21401
C         19.25273       44.56336       32.28357
C         18.42650       44.91243       33.51190
O         18.73529       45.86477       34.21254
C         18.44079       44.82645       31.00171
C         18.99070       43.78290       30.05574
C         19.08073       42.57336       30.96767
H         20.20389       45.13955       32.25470
H         17.37081       44.55767       31.15841
H         18.48608       45.87334       30.63238
H         18.39022       43.61459       29.13601
H         20.02612       44.07500       29.76869
H         18.07170       42.15184       31.14593
H         19.73651       41.82513       30.50088
N         17.36686       44.12442       33.83353
C         16.49257       44.30705       34.98946
C         17.30937       44.20397       36.27573
O         17.25301       45.10171       37.10321
C         15.36578       43.24111       34.93765
C         14.51663       43.37857       33.64418
C         13.55460       42.24914       33.44217
O         12.95615       42.14959       32.38376
O         13.38017       41.31403       34.38799
H         17.20390       43.31104       33.22334
H         15.99976       45.30301       34.94469
H         14.69809       43.32955       35.82308
H         15.83675       42.23551       34.96217
H         15.16308       43.36487       32.74778
H         13.96509       44.34306       33.64205
N         18.12761       43.13827       36.47693
C         18.98659       42.95615       37.62486
H         19.73929       43.77043       37.67271
H         18.38762       42.92213       38.55652
H         19.53330       41.99019       37.52402
H         18.17018       42.43006       35.75492
Ca        11.48677       39.39922       33.63334
O          9.27684       38.07807       34.27616
H          8.34514       38.40226       34.24499
H          9.59610       38.30216       35.18363
O         11.66263       39.80071       36.34648
H         11.70653       40.76272       36.12420
H         10.81588       39.70323       36.84510

Ca 1.0



