%chk=holoCaM.loop2.water1.frame360.chk
%nprocshared=20
%mem=10GB
%nosave
#b3lyp/svp scf=(tight,noincore,xqc) Test 
#IOP(5/87=12) Density=Current Pop=(MK,readradii) iop(6/33=2) iop(6/42=6)

holoCaM.loop2.water1.frame360 

   -2  1 
C         90.34704        5.18559      106.58612
C         90.45967        3.86653      107.29310
O         90.35842        2.82816      106.65609
H         89.57205        5.80502      107.07870
H         91.32397        5.71432      106.65247
H         90.09515        5.05891      105.51132
N         90.72737        3.84777      108.62831
C         91.04531        2.63033      109.36098
C         89.82718        1.76380      109.60443
O         88.75212        2.28047      109.87875
C         91.69392        2.95785      110.72738
C         92.57027        1.84430      111.26879
O         92.83620        0.78470      110.46301
O         93.14232        1.99396      112.33727
H         90.81300        4.75338      109.11225
H         91.81465        2.10221      108.76028
H         90.90233        3.25972      111.44566
H         92.39174        3.80766      110.58734
N         89.96577        0.41551      109.58169
C         88.91596       -0.54069      109.86331
C         89.36680       -1.63975      110.85348
O         88.59464       -2.56263      111.07112
C         88.48218       -1.11093      108.51259
H         90.86767        0.03880      109.29870
H         88.02734       -0.03590      110.29939
H         88.15620       -0.26986      107.85657
H         89.31747       -1.62991      107.99494
H         87.62290       -1.79515      108.64858
N         90.58385       -1.61176      111.49146
C         91.06037       -2.66113      112.41102
C         91.90124       -2.15133      113.59904
O         91.94097       -2.84425      114.60745
C         91.76362       -3.80298      111.63197
C         92.93810       -3.38422      110.81434
O         93.58880       -2.27897      111.13760
O         93.35612       -4.08354      109.90559
H         91.20202       -0.83164      111.28206
H         90.17063       -3.13323      112.88189
H         91.02798       -4.22435      110.92322
H         92.10703       -4.60108      112.32306
N         92.58512       -0.96817      113.57361
C         93.37540       -0.45613      114.68547
C         94.76720       -1.06730      114.76349
O         95.36123       -1.04322      115.83075
H         92.55790       -0.38618      112.74007
H         92.82232       -0.61264      115.63499
H         93.47555        0.64594      114.58126
N         95.36346       -1.59965      113.66054
C         96.64079       -2.30829      113.65563
C         97.84422       -1.37777      113.43783
O         98.97112       -1.85653      113.41061
C         96.58102       -3.44706      112.61136
C         96.60661       -2.98396      111.19098
N         96.72472       -3.88006      110.20181
O         96.54693       -1.80254      110.91518
H         94.87232       -1.51082      112.77606
H         96.76419       -2.81809      114.63436
H         95.65921       -4.05332      112.75618
H         97.46280       -4.10533      112.74722
H         96.77024       -4.89027      110.38226
H         96.81439       -3.53299      109.25370
N         97.66659       -0.02846      113.31403
C         98.73700        0.95993      113.22049
C         99.39363        1.07056      111.85810
O        100.32693        1.84527      111.70693
H         96.71334        0.33962      113.36985
H         99.49230        0.75496      114.00367
H         98.28466        1.95573      113.41984
N         98.93012        0.34311      110.81824
C         99.39660        0.38601      109.44812
C         98.19131        0.62742      108.56390
O         97.19583       -0.07630      108.66956
C        100.07480       -0.95401      109.04291
C        101.47635       -1.10608      109.63280
O         99.33106       -2.06999      109.45337
H         98.14230       -0.26680      110.99484
H        100.14124        1.19693      109.28814
H        100.20636       -0.96961      107.93534
H         98.42544       -1.98139      109.08140
H        101.45573       -0.98849      110.73495
H        101.86039       -2.12306      109.39653
H        102.17945       -0.37149      109.18380
N         98.22292        1.60617      107.63605
C         97.15289        1.78622      106.68165
C         97.22733        0.61488      105.70441
O         98.20439        0.49302      104.97713
C         97.28713        3.14882      105.95672
C         97.23496        4.37728      106.92471
C         96.20892        3.31345      104.86828
C         98.60113        4.79908      107.49001
H         99.07873        2.15730      107.54636
H         96.17731        1.78982      107.22008
H         98.25777        3.14259      105.42018
H         96.47822        4.22845      107.73317
H         96.90509        5.26542      106.34840
H         95.22356        3.61909      105.27839
H         96.56160        4.09334      104.16077
H         96.07321        2.38988      104.27255
H         99.30672        4.95231      106.64478
H         98.50957        5.76241      108.03212
H         99.04445        4.09391      108.21096
N         96.24055       -0.31635      105.69176
C         96.23813       -1.50564      104.85335
C         95.83152       -1.16503      103.44011
O         95.51981       -0.02365      103.15669
C         95.26866       -2.56446      105.43241
C         95.59618       -2.84007      106.86481
O         95.16198       -1.99898      107.84740
O         96.41923       -3.70516      107.10241
H         95.49526       -0.21028      106.37555
H         97.26318       -1.94414      104.84677
H         95.35486       -3.51602      104.85619
H         94.21957       -2.22533      105.37599
N         95.82692       -2.13741      102.49596
C         95.49211       -1.94190      101.09438
C         94.07338       -1.40990      100.84812
O         93.99549       -0.42423      100.12508
C         95.85018       -3.22720      100.31762
C         95.35555       -3.20805       98.90147
C         95.61707       -2.11646       98.05748
C         94.57891       -4.27852       98.43137
C         95.05886       -2.07261       96.78165
C         94.03258       -4.23665       97.15034
C         94.25798       -3.12673       96.33108
H         96.13186       -3.07606      102.78959
H         96.17140       -1.16061      100.68446
H         95.42986       -4.11345      100.83906
H         96.96036       -3.31374      100.32866
H         96.21636       -1.28103       98.39532
H         94.38727       -5.14128       99.05986
H         95.23783       -1.20973       96.15488
H         93.42131       -5.05927       96.80452
H         93.81062       -3.08348       95.34878
N         92.90888       -1.92876      101.35291
C         91.62409       -1.29738      101.06980
C         91.47439        0.03972      101.78039
O         90.60113        0.81136      101.40808
C         90.59257       -2.31260      101.54073
C         91.31663       -3.04472      102.66384
C         92.78093       -3.09008      102.20901
H         91.49578       -1.13727       99.97502
H         89.60597       -1.86978      101.81087
H         90.43941       -3.03524      100.71255
H         91.26550       -2.38195      103.55515
H         90.89074       -4.03787      102.92485
H         93.42155       -3.03808      103.11652
H         93.02736       -4.00184      101.62868
N         92.26544        0.36075      102.83828
C         92.18834        1.62928      103.54908
C         92.89058        2.70451      102.73336
O         92.50792        3.86482      102.78662
C         92.83378        1.49783      104.94158
C         92.26454        0.30495      105.73408
C         92.88480        0.18378      107.08152
O         93.77154        0.94119      107.44467
O         92.46095       -0.79433      107.89636
H         92.95456       -0.32959      103.15802
H         91.11999        1.89165      103.72213
H         92.64252        2.43187      105.51373
H         93.92976        1.35863      104.85080
H         92.46212       -0.65642      105.21855
H         91.16743        0.41086      105.85325
N         93.94075        2.35191      101.93832
C         94.62194        3.22091      101.01426
H         95.62590        2.78706      100.80245
H         94.06578        3.22039      100.05396
H         94.74996        4.24362      101.41776
H         94.22715        1.37382      101.90329
Ca        94.49382       -0.59309      109.59453
O         96.00604        1.42206      110.93636
H         95.77360        1.65059      111.86849
H         95.68558        2.19420      110.40884

Ca 1.0



