%chk=holoCaM.loop4.water3.frame236.chk
%nprocshared=20
%mem=10GB
%nosave
#b3lyp/svp scf=(tight,noincore,xqc) Test 
#IOP(5/87=12) Density=Current Pop=(MK,readradii) iop(6/33=2) iop(6/42=6)

holoCaM.loop4.water3.frame236 

   -3  1 
C         45.75049       68.57017       50.15719
C         44.62908       69.20745       50.91783
O         44.39479       70.39396       50.73460
H         46.50079       68.15708       50.86127
H         45.34586       67.75529       49.52139
H         46.24767       69.31645       49.49907
N         43.87738       68.47411       51.79081
C         42.72188       69.04160       52.47252
C         42.44839       68.31991       53.79165
O         42.23166       67.11621       53.78558
C         41.49999       68.96340       51.53394
C         40.34861       69.80741       51.99846
O         39.29295       69.77903       51.38756
O         40.49448       70.65925       53.02948
H         44.09427       67.47293       51.91302
H         42.94103       70.11056       52.68822
H         41.18649       67.90092       51.43557
H         41.76965       69.33624       50.52248
N         42.45024       69.01542       54.96526
C         42.25723       68.42927       56.29504
C         40.99197       68.97623       56.98747
O         40.64482       68.46354       58.04204
C         43.57617       68.70478       57.10516
C         44.73373       67.87657       56.47887
C         43.46212       68.42756       58.61746
C         46.12528       68.22920       57.00897
H         42.63992       70.02443       54.91949
H         42.09614       67.33131       56.21718
H         43.81236       69.78908       57.00580
H         44.77279       68.05395       55.38383
H         44.54145       66.79300       56.64249
H         42.71224       69.09932       59.08255
H         43.19417       67.36896       58.81164
H         44.40727       68.66879       59.14223
H         46.88104       67.60496       56.48638
H         46.35078       69.29752       56.80601
H         46.22438       68.02793       58.09320
N         40.26482       70.01177       56.47577
C         39.13886       70.64634       57.17954
C         37.92305       70.96435       56.28223
O         36.92851       71.43667       56.81586
C         39.62862       71.93043       57.90074
C         40.22693       72.95476       56.97686
O         40.42820       72.64557       55.68629
O         40.54055       74.05588       57.39836
H         40.60281       70.43059       55.61003
H         38.77043       69.96893       57.98098
H         40.39229       71.66812       58.66495
H         38.76453       72.38675       58.43204
N         37.90868       70.72775       54.93748
C         36.75050       70.93404       54.06850
C         36.27276       72.36984       53.83472
O         35.28598       72.51244       53.12684
H         38.72409       70.28843       54.50628
H         35.90319       70.34325       54.47845
H         36.99179       70.51695       53.06642
N         36.86721       73.47055       54.37879
C         36.32099       74.83239       54.22362
C         36.28675       75.37848       52.78808
O         35.45122       76.23569       52.53552
C         37.04583       75.83580       55.15942
C         38.52753       75.89671       54.92482
O         39.05491       75.18391       53.92140
O         39.25126       76.50544       55.69431
H         37.68754       73.32910       54.98416
H         35.26559       74.80075       54.57667
H         36.89659       75.48332       56.20263
H         36.60791       76.85334       55.07007
N         37.18321       75.00705       51.82602
C         37.19189       75.55605       50.46991
C         38.45922       76.33588       50.12229
O         38.60443       76.70062       48.96526
H         37.89392       74.30099       52.05234
H         36.32702       76.22957       50.28814
H         37.09978       74.70122       49.76608
N         39.40715       76.64037       51.05628
C         40.66320       77.33988       50.78508
C         41.84272       76.44347       51.15180
O         41.62971       75.33664       51.61990
C         40.73144       78.63716       51.62604
C         39.62488       79.63936       51.27250
C         39.79072       80.92326       52.04987
N         39.71227       80.93702       53.40172
O         39.99735       81.96672       51.44812
H         39.24257       76.37172       52.02335
H         40.75126       77.59770       49.70741
H         41.70375       79.14292       51.44557
H         40.67523       78.37732       52.70668
H         38.62403       79.20818       51.48722
H         39.68655       79.86454       50.18496
H         39.53030       80.07273       53.93157
H         39.83017       81.81936       53.92238
N         43.12717       76.87733       50.97899
C         44.30652       76.10769       51.37044
C         45.03065       76.86529       52.47631
O         45.51381       77.96364       52.23983
C         45.20780       75.85499       50.12423
C         46.58628       75.27872       50.48709
C         44.51418       74.88943       49.14948
H         43.28474       77.81064       50.57133
H         44.01347       75.11831       51.78192
H         45.38271       76.82429       49.60675
H         46.48621       74.30999       51.01500
H         47.18813       75.12114       49.56635
H         47.15236       75.98786       51.12414
H         44.38763       73.89505       49.62689
H         43.51841       75.27081       48.84261
H         45.13008       74.74925       48.23587
N         45.11837       76.32521       53.72999
C         45.80081       76.97475       54.85190
C         47.30358       76.98652       54.61655
O         47.76392       76.37388       53.66462
C         45.46290       76.19888       56.15994
C         45.96873       76.79524       57.44915
N         45.60614       78.04199       57.82650
O         46.68269       76.12970       58.18360
H         44.65529       75.42053       53.89804
H         45.41305       78.01313       54.93782
H         45.82437       75.15127       56.06254
H         44.37150       76.16643       56.28072
H         44.98814       78.61497       57.23508
H         45.94300       78.43239       58.71899
N         48.14114       77.66137       55.45349
C         49.59448       77.58202       55.33812
C         50.13217       76.21580       55.79099
O         51.31133       75.96364       55.58775
C         50.24149       78.72614       56.15420
C         51.75014       78.65287       56.17047
C         52.49323       78.68573       54.97714
C         52.42282       78.50569       57.39468
C         53.88507       78.55314       55.01203
C         53.81198       78.38010       57.42685
C         54.54824       78.39678       56.23448
O         55.88878       78.25809       56.25238
H         47.73179       78.25476       56.18902
H         49.86575       77.73411       54.26965
H         49.85744       78.67262       57.19698
H         49.92205       79.70131       55.72630
H         51.99662       78.79093       54.02082
H         51.87102       78.47444       58.32614
H         54.44762       78.56169       54.08706
H         54.31203       78.25968       58.37931
H         56.38018       78.13567       57.07737
N         49.34227       75.28268       56.39682
C         49.81948       73.96889       56.81520
C         49.22588       72.88222       55.91958
O         49.58431       71.72387       56.07722
C         49.55570       73.81369       58.32814
C         50.16318       72.54246       58.94226
C         50.06112       72.56995       60.44174
O         50.62138       73.44854       61.07914
O         49.37180       71.61435       61.09291
H         48.34999       75.48338       56.55463
H         50.91992       73.89987       56.67080
H         48.46547       73.85533       58.54287
H         50.03889       74.68897       58.81878
H         51.23935       72.46818       58.67434
H         49.63424       71.64670       58.55677
N         48.41667       73.21135       54.86793
C         48.03640       72.29329       53.80666
C         48.85019       72.60117       52.55197
O         48.93816       71.73552       51.69246
C         46.53915       72.45807       53.48505
C         45.63324       72.14002       54.68189
C         44.19063       72.48122       54.42195
O         43.29410       72.33350       55.41267
O         43.82423       72.92383       53.34473
H         48.13450       74.18570       54.73146
H         48.26279       71.24498       54.10289
H         46.25415       71.81286       52.62472
H         46.37615       73.52053       53.19566
H         45.95394       72.74165       55.55651
H         45.71754       71.06210       54.93716
N         49.46124       73.81041       52.36190
C         50.24547       74.11595       51.18842
H         51.13528       73.45457       51.15115
H         49.63299       73.98759       50.27198
H         50.59133       75.17237       51.23620
H         49.37131       74.56523       53.05059
Ca        40.90672       74.02040       54.04524
O         39.56604       72.78299       50.92256
H         38.71855       72.39526       50.58963
H         39.70483       73.59158       50.36876
O         42.42560       72.79043       50.76172
H         42.31067       71.97124       51.30157
H         42.16914       72.52439       49.84384
O         42.41435       75.94193       55.02778
H         42.26502       75.35232       55.81099
H         41.71737       76.63665       55.09378

Ca 1.0



