%chk=holoCaM.loop4.water3.frame252.chk
%nprocshared=20
%mem=10GB
%nosave
#b3lyp/svp scf=(tight,noincore,xqc) Test 
#IOP(5/87=12) Density=Current Pop=(MK,readradii) iop(6/33=2) iop(6/42=6)

holoCaM.loop4.water3.frame252 

   -3  1 
C         36.61436       83.23580       86.61780
C         36.41116       84.72229       86.63620
O         36.46479       85.34382       85.58478
H         37.47355       82.95622       87.25917
H         35.69561       82.73983       87.00188
H         36.79271       82.87342       85.58252
N         36.09776       85.34699       87.80623
C         35.67675       86.74118       87.87790
C         36.34689       87.45666       89.05168
O         36.34296       86.90236       90.14262
C         34.14723       86.72033       88.04771
C         33.49264       88.04138       87.78479
O         32.28169       88.13450       87.88968
O         34.20570       89.09899       87.35379
H         36.00528       84.76619       88.65481
H         35.89884       87.26338       86.92132
H         33.88446       86.34468       89.06049
H         33.71293       86.02007       87.29983
N         36.89307       88.70688       88.92039
C         37.56799       89.41070       90.02193
C         36.77014       90.60405       90.55555
O         37.07227       91.05914       91.64982
C         39.00689       89.86966       89.60658
C         38.96976       91.06098       88.60218
C         39.80910       88.67922       89.05124
C         40.34102       91.60878       88.20600
H         36.81586       89.17377       88.01072
H         37.66866       88.70913       90.87877
H         39.52288       90.23230       90.52368
H         38.42681       91.90803       89.06993
H         38.43133       90.78118       87.68082
H         39.82300       87.84993       89.78832
H         39.36407       88.31133       88.10158
H         40.86283       88.96367       88.85616
H         40.93068       90.85686       87.64493
H         40.20185       92.48796       87.53977
H         40.90412       91.93336       89.10567
N         35.82750       91.22959       89.79504
C         35.12808       92.45888       90.18808
C         33.61188       92.37076       90.01786
O         32.94470       93.32990       90.38201
C         35.66961       93.65894       89.36094
C         35.86583       93.30227       87.91373
O         34.92241       92.61310       87.25342
O         36.97259       93.41783       87.41108
H         35.66767       90.87314       88.84596
H         35.30388       92.68876       91.26151
H         36.66676       93.94625       89.76127
H         35.00832       94.54526       89.46815
N         32.98811       91.29574       89.45904
C         31.55232       91.23848       89.23673
C         31.07754       92.37619       88.35857
O         30.22154       93.13064       88.79808
H         33.53698       90.48421       89.16629
H         31.02751       91.26636       90.21669
H         31.29262       90.28017       88.74330
N         31.60189       92.57029       87.11224
C         31.19938       93.67161       86.23333
C         30.61179       93.18668       84.90606
O         30.31028       94.02108       84.06380
C         32.37238       94.65893       86.02481
C         33.56159       94.13982       85.26316
O         33.61959       92.86993       84.82829
O         34.50377       94.88501       85.04843
H         32.33174       91.91942       86.78576
H         30.40302       94.27617       86.72050
H         32.71976       95.00889       87.02230
H         31.98595       95.54384       85.47424
N         30.35461       91.86694       84.67199
C         29.69891       91.37577       83.46730
C         30.58290       91.27194       82.23538
O         30.06996       90.81191       81.22361
H         30.51691       91.18303       85.42184
H         28.79844       91.99365       83.25578
H         29.34545       90.34204       83.67059
N         31.89782       91.63809       82.22267
C         32.77060       91.47829       81.05820
C         33.98642       90.62798       81.38974
O         34.14556       90.21629       82.53310
C         33.23006       92.85334       80.54210
C         32.05246       93.70863       80.06394
C         32.54738       94.96605       79.39852
N         33.28504       95.87210       80.08094
O         32.28448       95.16459       78.22166
H         32.30652       92.04583       83.06836
H         32.23334       90.96190       80.23190
H         33.90475       92.70696       79.67241
H         33.79814       93.38422       81.33619
H         31.38989       93.96707       80.91739
H         31.46172       93.12268       79.32464
H         33.51810       95.72602       81.07350
H         33.62775       96.72339       79.61176
N         34.89023       90.31753       80.41362
C         36.07374       89.49646       80.63024
C         37.31874       90.30049       80.27522
O         37.38629       90.81712       79.16655
C         35.99719       88.19509       79.78245
C         37.11824       87.22388       80.18801
C         34.64743       87.47994       79.95272
H         34.72210       90.65381       79.45239
H         36.12086       89.18225       81.68480
H         36.10580       88.44926       78.70494
H         37.00182       86.92713       81.25343
H         37.08353       86.30348       79.56884
H         38.11206       87.69016       80.05288
H         34.47003       87.21365       81.01579
H         33.81651       88.12542       79.59887
H         34.62829       86.55240       79.34102
N         38.36897       90.39994       81.14145
C         39.61343       91.10161       80.82483
C         40.68436       90.09285       80.42962
O         40.37597       88.91536       80.35420
C         40.01822       92.01346       82.01126
C         40.48575       91.25936       83.23728
N         39.81968       91.33177       84.41031
O         41.50392       90.59299       83.17692
H         38.32244       89.88650       82.03301
H         39.46486       91.76577       79.94501
H         39.14987       92.66092       82.26067
H         40.84598       92.68735       81.70273
H         38.95845       91.88354       84.50293
H         40.17127       90.82214       85.23453
N         41.96242       90.46831       80.14642
C         43.00022       89.50804       79.76473
C         43.19854       88.44543       80.84318
O         43.06667       87.26691       80.54446
C         44.33954       90.24072       79.51866
C         45.46619       89.28451       79.19199
C         45.48958       88.57551       77.97880
C         46.50366       89.08835       80.11971
C         46.53864       87.69051       77.69980
C         47.54148       88.19595       79.84507
C         47.56478       87.49525       78.63187
O         48.56449       86.63407       78.35380
H         42.20552       91.46921       80.20834
H         42.69510       89.00671       78.81787
H         44.59313       90.80553       80.44151
H         44.23717       90.98716       78.70140
H         44.70304       88.71281       77.24741
H         46.50262       89.61509       81.06512
H         46.55387       87.15370       76.75938
H         48.32553       88.05021       80.57748
H         49.28899       86.47021       78.97494
N         43.55949       88.79964       82.10970
C         43.88936       87.83119       83.15779
C         42.73363       86.90266       83.52168
O         42.98662       85.90267       84.17986
C         44.38035       88.55640       84.43165
C         45.67478       89.35579       84.19777
C         46.06531       90.11073       85.43571
O         46.15627       91.32813       85.40761
O         46.31886       89.45167       86.58217
H         43.65421       89.80380       82.30960
H         44.71203       87.18990       82.76917
H         44.57923       87.81076       85.23292
H         43.57374       89.23893       84.78304
H         45.54651       90.08591       83.37268
H         46.49504       88.66081       83.91724
N         41.45035       87.15404       83.14366
C         40.35206       86.22285       83.38140
C         40.32359       85.20667       82.26139
O         40.41249       84.01783       82.53180
C         39.01674       86.98344       83.44878
C         38.94862       87.86320       84.70285
C         37.73376       88.74038       84.72960
O         37.56941       89.58273       85.75220
O         36.91215       88.72335       83.83491
H         41.24146       88.02355       82.63566
H         40.47822       85.69507       84.35477
H         38.16535       86.26834       83.48267
H         38.91409       87.61299       82.54034
H         39.83805       88.52238       84.74537
H         38.94690       87.21662       85.60834
N         40.21333       85.61879       80.96857
C         40.18676       84.73181       79.82748
H         41.04837       84.96622       79.16722
H         40.24061       83.66423       80.12152
H         39.24828       84.89946       79.25886
H         40.15627       86.62168       80.77250
Ca        35.91023       91.09738       85.91899
O         32.46829       89.52000       84.79382
H         31.91631       89.30966       85.58651
H         32.10059       88.94082       84.08024
O         34.53063       87.59806       84.28692
H         34.03897       87.23982       83.50731
H         34.30984       86.98336       85.02826
O         36.32561       92.39881       83.04537
H         36.93230       92.72452       83.75507
H         35.61888       93.08925       82.99811

Ca 1.0



