%chk=holoCaM.loop3.water2.frame287.chk
%nprocshared=20
%mem=10GB
%nosave
#b3lyp/svp scf=(tight,noincore,xqc) Test 
#IOP(5/87=12) Density=Current Pop=(MK,readradii) iop(6/33=2) iop(6/42=6)

holoCaM.loop3.water2.frame287 

   0  1 
C         36.13213       71.96908       84.37541
C         36.37844       73.33851       83.81411
O         36.56862       74.27184       84.57639
H         35.13793       71.60637       84.03777
H         36.91458       71.27022       84.01088
H         36.14961       71.98278       85.48556
N         36.41518       73.50875       82.46480
C         36.62802       74.78242       81.77689
C         35.34110       75.62055       81.83397
O         34.60797       75.64968       80.85561
C         37.01954       74.45468       80.31336
C         37.40200       75.59289       79.39705
O         37.58042       75.32033       78.22255
O         37.57615       76.87593       79.79073
H         36.31607       72.65588       81.89044
H         37.50046       75.29785       82.22353
H         36.16425       73.92041       79.84433
H         37.88283       73.75445       80.31866
N         34.96113       76.27351       82.96997
C         33.66719       76.95066       83.10560
C         33.51327       78.21054       82.24931
O         32.41108       78.74129       82.22907
C         33.37902       77.25832       84.59564
C         33.17579       75.95025       85.38613
C         32.89370       76.20145       86.87289
C         32.48470       74.91764       87.62276
N         33.51837       73.88055       87.58961
H         35.58232       76.23690       83.78739
H         32.87398       76.24726       82.76530
H         32.43601       77.84202       84.68284
H         34.20604       77.86657       85.02495
H         34.07400       75.30743       85.29408
H         32.30696       75.41431       84.94418
H         32.04842       76.91764       86.96672
H         33.78985       76.65474       87.35017
H         31.54497       74.51419       87.18328
H         32.27464       75.18555       88.68187
H         34.41582       74.24870       87.97910
H         33.20189       73.07165       88.17209
H         33.66357       73.53237       86.61521
N         34.53120       78.74059       81.50928
C         34.37488       79.89990       80.62757
C         34.65787       79.55470       79.16114
O         34.52052       80.43399       78.32183
C         35.21582       81.08376       81.14828
C         36.68295       80.79828       81.26320
O         37.34355       80.54273       80.27395
O         37.28364       80.85730       82.46529
H         35.45701       78.30876       81.55986
H         33.32171       80.25636       80.64341
H         34.83627       81.35062       82.15869
H         35.06913       81.96865       80.49128
N         34.97330       78.28560       78.76509
C         35.06027       77.86505       77.37580
C         36.23721       78.39476       76.58556
O         36.28855       78.08181       75.40364
H         35.04812       77.54204       79.46316
H         34.11615       78.15194       76.86315
H         35.13025       76.75544       77.34346
N         37.21824       79.18323       77.11842
C         38.29757       79.71464       76.28428
C         39.21931       78.62679       75.73163
O         40.00660       78.92480       74.84487
C         39.10960       80.80735       77.01472
C         40.06117       80.28254       78.06617
N         41.38766       80.53894       77.96822
O         39.64024       79.63399       79.01113
H         37.16455       79.45230       78.10655
H         37.79559       80.22236       75.43014
H         38.40723       81.53511       77.47609
H         39.69944       81.36046       76.25241
H         41.76671       81.08726       77.18223
H         42.04448       80.19456       78.68107
N         39.19755       77.35738       76.23416
C         40.02036       76.26342       75.74456
C         41.01682       75.77170       76.77564
O         41.70913       74.80789       76.47856
H         38.57338       77.14354       77.01832
H         40.59740       76.56039       74.84198
H         39.34744       75.42825       75.45588
N         41.21271       76.41814       77.96486
C         42.27815       76.06846       78.89795
C         41.73326       75.86707       80.29745
O         40.81269       76.57454       80.68658
C         43.35104       77.18002       78.92525
C         43.98904       77.39291       77.56607
C         43.26933       77.98289       76.50918
C         45.31797       76.99617       77.34057
C         43.85530       78.14928       75.25312
C         45.90328       77.16239       76.08103
C         45.17082       77.73560       75.03151
O         45.71870       77.89341       73.80991
H         40.65552       77.25540       78.18592
H         42.80289       75.13894       78.58295
H         44.13071       76.86120       79.65251
H         42.93366       78.13927       79.29427
H         42.25217       78.31753       76.64780
H         45.89848       76.54305       78.13416
H         43.28250       78.59767       74.45061
H         46.92414       76.84021       75.92106
H         46.62317       77.61256       73.61140
N         42.33211       74.97963       81.14650
C         41.91859       74.79683       82.53341
C         43.05682       75.25821       83.42836
O         44.08412       74.59357       83.47684
C         41.57872       73.29957       82.81545
C         40.52018       72.75206       81.82739
C         41.11437       73.10770       84.27590
C         40.40662       71.22409       81.87512
H         43.14093       74.43546       80.80754
H         41.01758       75.41411       82.74598
H         42.51330       72.71616       82.65489
H         40.81987       72.99663       80.78672
H         39.53289       73.22142       82.02423
H         41.88816       73.45576       84.98592
H         40.17826       73.67616       84.46612
H         40.93855       72.04081       84.51400
H         39.67533       70.88060       81.11462
H         41.39270       70.76592       81.63933
H         40.06688       70.85839       82.86349
N         42.95545       76.40876       84.15082
C         43.99854       76.84651       85.07314
C         44.00807       75.96638       86.31423
O         43.14877       75.11094       86.45182
C         43.78439       78.32099       85.47064
O         42.57197       78.49354       86.15626
H         42.12437       76.99836       84.01973
H         44.98171       76.79016       84.55559
H         43.82302       78.96164       84.55810
H         44.60840       78.67430       86.12525
H         41.93159       78.91401       85.52562
N         44.94783       76.13831       87.28170
C         44.92869       75.39685       88.53921
C         43.68508       75.74580       89.33940
O         42.99251       74.84556       89.79237
C         46.17272       75.72533       89.36851
H         45.69081       76.83678       87.12588
H         44.96044       74.30192       88.33674
H         46.21829       76.80725       89.61321
H         46.16069       75.14040       90.31389
H         47.08499       75.44456       88.80000
N         43.33645       77.05244       89.52276
C         42.18205       77.49946       90.29867
C         40.90002       76.82326       89.85601
O         40.22954       76.23081       90.69020
C         42.03030       79.02235       90.17686
H         43.92473       77.77077       89.07171
H         42.35385       77.25804       91.37120
H         42.94909       79.52820       90.54228
H         41.86413       79.31862       89.11796
H         41.16989       79.37543       90.78417
N         40.50898       76.85210       88.55327
C         39.29410       76.20214       88.07064
C         39.31970       74.71928       88.39838
O         38.42196       74.25367       89.08641
C         39.14530       76.39860       86.55119
C         38.88506       77.86508       86.16388
C         38.82327       77.96189       84.67290
O         39.80038       77.66870       84.00630
O         37.68694       78.29299       84.04250
H         41.11869       77.33683       87.88048
H         38.40701       76.65599       88.56766
H         38.28163       75.79828       86.18755
H         40.06406       76.02455       86.04475
H         39.68624       78.53890       86.53102
H         37.91957       78.19205       86.60729
N         40.33159       73.92475       87.95403
C         40.43675       72.51153       88.25341
H         41.38077       72.32584       88.80802
H         39.59085       72.14438       88.87140
H         40.45817       71.93496       87.30550
H         41.07719       74.34126       87.38591
Ca        37.78620       77.69251       81.88051
O         40.06644       81.13755       83.38298
H         40.87974       81.57539       83.73866
H         39.42449       81.15688       84.13655
O         41.96882       79.64853       81.49559
H         42.57812       79.48015       82.25742
H         42.24619       80.53338       81.14809

Ca 1.0



