%chk=holoCaM-CaMKII.loop3.water2.frame87.chk
%nprocshared=20
%mem=10GB
%nosave
#b3lyp/svp scf=(tight,noincore,xqc) Test 
#IOP(5/87=12) Density=Current Pop=(MK,readradii) iop(6/33=2) iop(6/42=6)

holoCaM-CaMKII.loop3.water2.frame87 

   0  1 
C         12.21651       38.37639       58.17100
C         13.23490       37.66837       57.33878
O         12.91818       36.62381       56.78716
H         11.26580       37.80058       58.19240
H         12.59383       38.49526       59.20631
H         12.01744       39.37353       57.72565
N         14.48242       38.19952       57.17952
C         15.45992       37.62690       56.26921
C         16.32081       36.57911       56.97530
O         17.47771       36.84260       57.27446
C         16.30615       38.73970       55.59330
C         16.90354       38.24405       54.30255
O         17.62011       38.96367       53.63086
O         16.53428       37.03311       53.84936
H         14.68983       39.10891       57.62015
H         14.88620       37.15678       55.45042
H         17.08191       39.12190       56.29120
H         15.65884       39.59161       55.31596
N         15.79461       35.36696       57.30273
C         16.51296       34.34634       58.06584
C         17.71423       33.82754       57.29041
O         18.82481       33.94853       57.78963
C         15.55703       33.20495       58.48248
C         14.41528       33.75573       59.36561
C         13.45450       32.66309       59.84226
C         12.22973       33.24308       60.57912
N         12.59065       33.99828       61.78125
H         14.82896       35.17388       57.01210
H         16.87781       34.80348       59.01436
H         16.12886       32.45051       59.06708
H         15.13342       32.70758       57.58279
H         13.81952       34.49789       58.79747
H         14.86189       34.26350       60.24676
H         13.99577       31.94888       60.49971
H         13.07458       32.10773       58.95718
H         11.56602       32.39885       60.86756
H         11.65747       33.90354       59.88912
H         13.15468       33.40263       62.42911
H         13.12196       34.86261       61.53129
H         11.71452       34.29507       62.26891
N         17.57620       33.27775       56.04589
C         18.72684       32.85485       55.23283
C         19.73356       33.98963       55.02193
O         20.88988       33.69379       54.75316
C         18.32459       32.24034       53.86125
C         17.49781       33.19259       53.04892
O         16.36882       33.47942       53.41248
O         18.02006       33.86033       52.00940
H         16.62128       33.17790       55.68209
H         19.25744       32.06662       55.81136
H         17.74828       31.30102       53.99369
H         19.25500       31.99343       53.30369
N         19.38487       35.29938       55.17847
C         20.34620       36.38694       55.20037
C         21.11916       36.53642       53.91700
O         22.33612       36.42004       53.96515
H         18.40249       35.54167       55.35352
H         21.05405       36.21015       56.04218
H         19.82057       37.34428       55.40715
N         20.49458       36.84549       52.74178
C         21.23849       37.09130       51.50366
C         21.11565       38.54170       51.04459
O         21.74361       38.89493       50.05624
C         20.82728       36.07601       50.40909
C         19.56984       36.42674       49.64536
N         19.57098       36.47952       48.29332
O         18.53984       36.66211       50.24068
H         19.46761       36.93736       52.73968
H         22.31799       36.91332       51.69279
H         20.71902       35.07637       50.88515
H         21.65216       35.99958       49.67068
H         20.42218       36.27078       47.75351
H         18.70652       36.71291       47.78138
N         20.31285       39.43250       51.70011
C         20.14392       40.81946       51.31449
C         18.77383       41.08435       50.72341
O         18.48671       42.24334       50.46555
H         19.76520       39.13105       52.51316
H         20.89649       41.13319       50.56049
H         20.29585       41.44869       52.21972
N         17.90568       40.07019       50.40952
C         16.62468       40.29902       49.74476
C         15.47570       39.65359       50.50416
O         15.71073       38.85969       51.40030
C         16.64500       39.71062       48.31581
C         17.71211       40.30258       47.42593
C         19.06613       39.95478       47.58463
C         17.35207       41.19184       46.40070
C         20.03831       40.48934       46.73349
C         18.32583       41.73421       45.55914
C         19.67306       41.38254       45.72087
O         20.62059       41.89311       44.90909
H         18.17882       39.09615       50.58431
H         16.42078       41.38899       49.67428
H         15.65081       39.90730       47.86010
H         16.77649       38.60728       48.33757
H         19.37139       39.25816       48.35319
H         16.31653       41.47349       46.25705
H         21.07612       40.20598       46.85896
H         18.02993       42.42484       44.77996
H         20.40689       42.51374       44.19758
N         14.18588       39.94484       50.15172
C         13.01046       39.30454       50.73684
C         12.19288       38.67696       49.62032
O         11.84054       39.37063       48.67726
C         12.11169       40.32121       51.50242
C         12.86603       41.11937       52.59295
C         10.88637       39.60331       52.11713
C         13.49763       40.27673       53.70170
H         14.02743       40.65345       49.42008
H         13.31110       38.52026       51.46428
H         11.72803       41.07492       50.77879
H         12.14943       41.82724       53.06530
H         13.66437       41.72639       52.11564
H         11.19749       38.79824       52.81619
H         10.24107       40.32371       52.66110
H         10.26011       39.13813       51.32900
H         14.27808       39.60919       53.29382
H         13.97444       40.95861       54.43568
H         12.74570       39.66645       54.24032
N         11.78188       37.38301       49.71908
C         10.89206       36.74423       48.75696
C          9.54855       36.44977       49.40322
O          9.37187       36.69929       50.58521
C         11.53929       35.45493       48.22438
O         11.72070       34.51718       49.25412
H         12.05774       36.84939       50.54907
H         10.70076       37.42089       47.89627
H         12.50691       35.68667       47.72350
H         10.89524       34.99202       47.44798
H         12.62285       34.67396       49.63541
N          8.53447       35.93439       48.65612
C          7.22305       35.61248       49.20508
C          7.31246       34.48595       50.21838
O          6.79486       34.63534       51.31701
C          6.26731       35.20253       48.07834
H          8.69931       35.78228       47.64975
H          6.78250       36.51948       49.67884
H          6.63784       34.30225       47.54450
H          5.25944       34.98632       48.49439
H          6.16786       36.03474       47.34867
N          7.93652       33.31309       49.89942
C          7.93884       32.13413       50.76643
C          8.60746       32.32454       52.12144
O          8.49329       31.41910       52.93669
C          8.62046       30.96041       50.05503
H          8.37396       33.23932       48.96745
H          6.87503       31.86367       50.94986
H          8.12449       30.76022       49.08264
H          9.69152       31.19807       49.87265
H          8.55879       30.03971       50.67402
N          9.29170       33.45459       52.45388
C          9.85405       33.67877       53.78165
C          8.99699       34.69306       54.51464
O          8.62259       34.43456       55.65052
C         11.36091       34.00468       53.72005
C         11.72893       35.34415       53.07673
C         13.22566       35.46897       52.99013
O         13.77420       35.62728       51.91208
O         13.97408       35.37238       54.10234
H          9.38417       34.20384       51.75803
H          9.80810       32.74329       54.38324
H         11.85873       33.18211       53.15847
H         11.76529       34.00115       54.75733
H         11.32935       36.17863       53.69197
H         11.29449       35.40520       52.06221
N          8.53221       35.80719       53.88348
C          7.57119       36.69506       54.49725
H          6.65919       36.12204       54.77674
H          8.00726       37.16897       55.39904
H          7.27111       37.48309       53.77357
H          8.81045       36.00562       52.91503
Ca        16.96303       35.81675       52.04744
O         15.28981       36.41321       48.99251
H         14.45700       36.93559       48.88156
H         15.69936       36.40880       48.09114
O         15.42744       33.57543       50.16218
H         15.24226       32.79463       50.74202
H         15.16127       33.28122       49.25512

Ca 1.0



