%chk=holoCaM-CaMKII.loop4.water1.frame425.chk
%nprocshared=20
%mem=10GB
%nosave
#b3lyp/svp scf=(tight,noincore,xqc) Test 
#IOP(5/87=12) Density=Current Pop=(MK,readradii) iop(6/33=2) iop(6/42=6)

holoCaM-CaMKII.loop4.water1.frame425 

   -3  1 
C         81.13877       71.74906       50.99707
C         81.15490       72.15642       52.43542
O         80.31257       72.94582       52.84015
H         82.10162       72.02255       50.52072
H         80.98872       70.65054       50.93041
H         80.30740       72.25347       50.45931
N         82.07209       71.62025       53.28764
C         82.05096       71.91838       54.70858
C         82.44032       73.36654       54.96155
O         83.53695       73.76919       54.59803
C         82.97635       70.97593       55.49357
C         82.63612       70.98970       56.95510
O         83.25125       70.26887       57.72178
O         81.57074       71.68642       57.40483
H         82.74359       70.92651       52.92325
H         81.01097       71.70666       55.04967
H         84.04399       71.23293       55.31980
H         82.80853       69.92991       55.15644
N         81.56516       74.20735       55.56871
C         81.79530       75.63760       55.73193
C         82.58002       75.93069       57.00827
O         83.48244       76.75473       56.95479
C         80.44508       76.42653       55.67045
C         79.66474       76.05046       54.37421
C         80.71045       77.94552       55.72433
C         78.33017       76.77521       54.19357
H         80.65046       73.82416       55.83281
H         82.37597       76.01497       54.85830
H         79.82158       76.15721       56.54901
H         79.42560       74.96904       54.39423
H         80.29316       76.24419       53.47792
H         81.25018       78.22336       56.65215
H         81.31244       78.26728       54.84717
H         79.76125       78.51761       55.73748
H         77.81329       76.36791       53.29821
H         77.67889       76.62838       55.07721
H         78.48114       77.85990       54.02616
N         82.28766       75.30726       58.19029
C         82.91532       75.66401       59.46922
C         83.92179       74.63368       59.98316
O         84.51114       74.87324       61.02845
C         81.82287       76.00165       60.51071
C         80.92016       74.85933       60.90016
O         79.92051       75.07843       61.77477
O         81.07941       73.74007       60.44510
H         81.57697       74.56259       58.18146
H         83.51382       76.59238       59.34151
H         81.19016       76.81516       60.09496
H         82.30438       76.38318       61.43676
N         84.24633       73.52192       59.26857
C         85.35090       72.64190       59.62104
C         85.15749       71.83338       60.88533
O         86.02419       71.85363       61.74720
H         83.76979       73.33663       58.37473
H         86.29242       73.23141       59.67949
H         85.47836       71.90536       58.79763
N         84.08968       71.00283       60.99655
C         83.96781       69.93689       61.99135
C         83.94200       68.58793       61.26161
O         83.55392       67.59064       61.85413
C         82.75724       70.16881       62.93840
C         81.52053       70.58024       62.21070
O         81.02462       71.67564       62.41865
O         81.07029       69.83854       61.19891
H         83.37073       71.04542       60.25913
H         84.85244       69.88739       62.66292
H         83.01607       70.99604       63.63463
H         82.56914       69.26260       63.55305
N         84.45864       68.47004       59.99748
C         84.57258       67.22060       59.26539
C         83.26668       66.66652       58.74000
O         83.32909       65.64583       58.06982
H         84.87941       69.29007       59.53949
H         85.09347       66.46504       59.89215
H         85.20495       67.40371       58.36790
N         82.05827       67.25816       58.97642
C         80.80596       66.73527       58.43625
C         80.06799       67.79127       57.63811
O         80.45611       68.94769       57.64935
C         79.97047       66.08207       59.56738
C         79.66008       66.92388       60.82391
C         78.58260       67.97137       60.65393
N         77.45182       67.91178       61.39732
O         78.73183       68.89412       59.87091
H         82.01116       68.10134       59.56014
H         81.02133       65.92024       57.71145
H         80.59568       65.23527       59.92843
H         79.03168       65.64313       59.16672
H         80.58996       67.37802       61.21872
H         79.31567       66.21130       61.60385
H         77.30295       67.15496       62.08080
H         76.72280       68.63325       61.30002
N         79.00882       67.43243       56.86285
C         78.22678       68.37263       56.06682
C         76.76956       68.17456       56.44412
O         76.28714       67.05595       56.33164
C         78.47712       68.12724       54.55141
C         77.68057       69.11722       53.68246
C         79.97290       68.27682       54.21485
H         78.75943       66.43292       56.81148
H         78.53125       69.42148       56.27600
H         78.16374       67.09289       54.28904
H         76.59031       69.02172       53.86399
H         77.99104       70.16247       53.89624
H         77.86389       68.91494       52.60508
H         80.58365       67.54335       54.78119
H         80.14798       68.09308       53.13323
H         80.32994       69.30003       54.46065
N         76.00592       69.21080       56.89693
C         74.61386       69.04471       57.31277
C         73.68203       69.67623       56.29688
O         74.14424       70.07530       55.23936
C         74.38148       69.52840       58.77173
C         74.27665       71.02192       58.99765
N         75.33380       71.84669       58.85202
O         73.20885       71.48778       59.36716
H         76.41638       70.15144       56.90924
H         74.35387       67.96445       57.32974
H         75.15405       69.09471       59.44061
H         73.41247       69.09474       59.10050
H         76.25658       71.48359       58.59782
H         75.23232       72.85712       59.03260
N         72.34063       69.74259       56.52243
C         71.39830       70.29924       55.55838
C         71.65547       71.78079       55.29398
O         71.53182       72.19753       54.15163
C         69.95095       70.07023       56.03977
C         68.93723       70.37609       54.96199
C         68.94039       69.64179       53.76077
C         67.97239       71.37787       55.14790
C         68.00184       69.91101       52.76287
C         67.03179       71.64466       54.14703
C         67.04487       70.91170       52.95047
O         66.14402       71.15686       51.97804
H         71.96964       69.35491       57.40183
H         71.52669       69.73376       54.60978
H         69.77152       70.67476       56.95621
H         69.82012       68.99927       56.31060
H         69.66597       68.85542       53.59453
H         67.94678       71.95152       56.06561
H         68.01785       69.33778       51.84398
H         66.29277       72.41973       54.30317
H         65.46269       71.83800       52.06748
N         72.00817       72.63895       56.29852
C         72.29450       74.06031       56.07046
C         73.53503       74.27728       55.19060
O         73.73087       75.38744       54.71785
C         72.46960       74.77904       57.43220
C         72.57994       76.31050       57.33061
C         72.70723       76.92675       58.69327
O         71.86637       77.71602       59.09292
O         73.76243       76.62520       59.47455
H         72.05894       72.26739       57.25716
H         71.40522       74.49017       55.55765
H         73.36840       74.36985       57.94571
H         71.57820       74.55120       58.05777
H         71.67338       76.70648       56.82181
H         73.47498       76.61323       56.75325
N         74.41426       73.26749       54.92972
C         75.61649       73.40698       54.11199
C         75.50316       72.60164       52.81887
O         76.42265       72.66432       52.01471
C         76.85241       72.93787       54.91757
C         76.96722       73.64046       56.27889
C         78.15867       73.16716       57.06487
O         78.94555       73.97553       57.52557
O         78.34482       71.85711       57.30848
H         74.24541       72.35386       55.34967
H         75.76139       74.47039       53.82138
H         77.77403       73.11201       54.32042
H         76.75873       71.84551       55.10358
H         76.06110       73.41418       56.86983
H         77.01994       74.73858       56.14467
N         74.40527       71.83745       52.54108
C         74.22063       71.08024       51.32216
H         73.29625       71.43254       50.81548
H         75.07227       71.18775       50.62113
H         74.09426       70.00640       51.57553
H         73.64045       71.77366       53.21485
Ca        80.79835       71.12079       59.40956
O         77.71654       72.21333       60.79840
H         77.30363       72.33831       61.68942
H         78.52840       72.77818       60.81857

Ca 1.0



