%chk=holoCaM.loop3.water3.frame445.chk
%nprocshared=20
%mem=10GB
%nosave
#b3lyp/svp scf=(tight,noincore,xqc) Test 
#IOP(5/87=12) Density=Current Pop=(MK,readradii) iop(6/33=2) iop(6/42=6)

holoCaM.loop3.water3.frame445 

   0  1 
C         18.75727       69.95270       55.00502
C         19.64300       68.78514       55.30921
O         19.99369       68.04724       54.40016
H         17.81635       69.87089       55.58749
H         19.28191       70.89041       55.28577
H         18.51297       69.98976       53.92232
N         20.03092       68.55118       56.59191
C         20.93229       67.47872       56.98062
C         20.15648       66.44149       57.76210
O         19.43295       66.79107       58.68476
C         22.09853       68.06611       57.78516
C         23.17717       67.06882       58.08490
O         23.12116       65.91894       57.68546
O         24.23933       67.46441       58.79301
H         19.66440       69.16564       57.33624
H         21.36388       66.99432       56.07979
H         21.71918       68.49176       58.73911
H         22.57132       68.88132       57.19606
N         20.24742       65.13083       57.40800
C         19.35680       64.09389       57.89588
C         19.96636       63.29814       59.04953
O         19.21279       62.57117       59.68182
C         18.91978       63.28270       56.65218
C         17.78851       62.26173       56.80677
C         17.44922       61.70282       55.40480
C         16.34490       60.63660       55.38382
N         15.04924       61.16307       55.81398
H         20.90384       64.87113       56.66408
H         18.45096       64.58573       58.31600
H         19.81182       62.77344       56.22481
H         18.56451       64.03242       55.90713
H         16.90003       62.77020       57.23574
H         18.10664       61.43871       57.48055
H         18.36614       61.24099       54.97619
H         17.14460       62.53631       54.73170
H         16.63766       59.77343       56.01948
H         16.24695       60.27301       54.33535
H         15.08100       61.44434       56.81891
H         14.77523       61.97965       55.22008
H         14.32833       60.41363       55.70372
N         21.28489       63.41419       59.42812
C         21.80686       62.81728       60.66770
C         22.62920       63.77957       61.55016
O         22.79697       63.45347       62.71715
C         22.56592       61.49619       60.41451
C         23.83520       61.60894       59.61787
O         24.57573       60.50494       59.40537
O         24.20469       62.67449       59.15827
H         21.92618       63.93589       58.82001
H         20.93509       62.52519       61.29451
H         21.89024       60.78594       59.89106
H         22.82520       61.04981       61.39958
N         23.19626       64.94082       61.08990
C         23.92498       65.88921       61.93980
C         25.41344       66.04787       61.60820
O         26.05426       66.88570       62.22587
H         23.10609       65.18982       60.10111
H         23.85965       65.60201       63.01075
H         23.42876       66.87785       61.83407
N         26.04150       65.25116       60.69847
C         27.48934       65.25706       60.40665
C         28.04504       66.50341       59.69357
O         29.22993       66.49921       59.38627
C         27.85019       64.00990       59.55076
C         27.37833       64.11756       58.08759
N         27.59591       62.86315       57.38366
O         26.03296       64.47966       58.07128
H         25.46563       64.51444       60.28068
H         28.02180       65.13674       61.37586
H         27.41578       63.10738       60.03553
H         28.95421       63.87873       59.53655
H         28.61613       62.63562       57.42249
H         27.36459       63.01875       56.37837
N         27.28675       67.59155       59.38541
C         27.80639       68.75060       58.66737
C         28.00038       68.54888       57.16514
O         28.43798       69.49629       56.52729
H         26.32643       67.64223       59.72774
H         28.75282       69.08549       59.14499
H         27.07468       69.58196       58.76728
N         27.65874       67.39486       56.51688
C         27.74023       67.21496       55.06027
C         26.35448       66.93452       54.48767
O         25.43500       66.72989       55.26574
C         28.64629       66.00622       54.74147
C         30.09181       66.20686       55.11787
C         30.67728       65.43692       56.13679
C         30.88245       67.13337       54.41754
C         32.03163       65.59039       56.44840
C         32.23966       67.27741       54.72346
C         32.81921       66.50381       55.73983
O         34.12893       66.62307       56.03806
H         27.28105       66.61293       57.06638
H         28.12824       68.13163       54.56507
H         28.62554       65.76676       53.65659
H         28.22906       65.12371       55.27449
H         30.08899       64.71472       56.68810
H         30.45418       67.72634       53.61892
H         32.47202       64.98983       57.23440
H         32.84143       67.98288       54.16409
H         34.71356       67.22780       55.55908
N         26.15079       66.84567       53.13242
C         24.88997       66.40161       52.52340
C         25.14295       65.81147       51.12528
O         25.55658       66.52393       50.22237
C         23.73728       67.47755       52.49680
C         24.06482       68.74717       51.66237
C         23.28044       67.87198       53.90920
C         22.87019       69.69728       51.49948
H         26.96990       66.96928       52.51719
H         24.52258       65.55403       53.13661
H         22.86696       66.97056       52.02032
H         24.34570       68.46491       50.63307
H         24.91503       69.29676       52.12040
H         22.35997       68.47834       53.87878
H         23.04070       66.96344       54.49595
H         24.04743       68.48261       54.42641
H         23.15540       70.54332       50.83998
H         22.01534       69.16173       51.03284
H         22.54611       70.13239       52.46563
N         24.93309       64.48139       50.89287
C         25.11559       63.83067       49.59212
C         24.05932       64.26992       48.57807
O         23.17584       65.03453       48.92846
C         25.05556       62.30015       49.77112
O         23.80292       61.91744       50.27016
H         24.66231       63.89307       51.68912
H         26.12798       64.08419       49.20808
H         25.84637       61.99047       50.49007
H         25.24567       61.79891       48.79661
H         23.76892       60.92749       50.21740
N         24.09934       63.82320       47.28511
C         23.10669       64.20389       46.27429
C         21.74529       63.52642       46.45559
O         20.81951       63.88954       45.74312
C         23.62690       63.86311       44.87453
H         24.89808       63.23686       46.99889
H         22.97712       65.30841       46.32068
H         22.90758       64.20374       44.09883
H         24.59598       64.37503       44.69711
H         23.77329       62.76605       44.77277
N         21.54544       62.53811       47.37055
C         20.25376       61.89358       47.61347
C         19.60926       62.55057       48.81368
O         18.47115       62.99083       48.74351
C         20.46609       60.39591       47.87494
H         22.33652       62.25488       47.96454
H         19.57432       61.99258       46.73789
H         20.93518       59.91453       46.99171
H         21.12705       60.23218       48.75451
H         19.49242       59.89915       48.07511
N         20.35858       62.71745       49.93031
C         19.97895       63.42782       51.14468
C         19.39176       64.79358       50.81706
O         18.28542       65.07260       51.25799
C         21.26007       63.48246       51.99849
C         21.20616       64.11917       53.38091
C         22.52397       63.86939       54.08832
O         22.75106       64.38951       55.29407
O         23.39808       63.17909       53.58842
H         21.31903       62.35185       49.88333
H         19.20928       62.84171       51.69418
H         22.05980       64.00060       51.42000
H         21.55863       62.41885       52.14484
H         20.38791       63.67278       53.98172
H         21.02878       65.21178       53.27678
N         20.03742       65.65947       49.98834
C         19.48059       66.92686       49.55492
H         18.48397       67.13019       50.00021
H         20.16844       67.75151       49.83104
H         19.36486       66.91428       48.44921
H         20.94767       65.39144       49.60309
Ca        24.77139       64.09957       56.24205
O         22.45102       61.64386       56.59456
H         22.18017       61.17695       55.76487
H         22.23039       61.00669       57.31861
O         26.45482       63.08704       53.80070
H         26.53966       62.14798       54.10293
H         27.22720       63.22522       53.19751
O         25.78308       60.58669       56.34447
H         25.32985       61.22850       56.94634
H         26.61063       60.33567       56.82702

Ca 1.0



