%chk=holoCaM.loop1.water2.frame293.chk
%nprocshared=20
%mem=10GB
%nosave
#b3lyp/svp scf=(tight,noincore,xqc) Test 
#IOP(5/87=12) Density=Current Pop=(MK,readradii) iop(6/33=2) iop(6/42=6)

holoCaM.loop1.water2.frame293 

   0  1 
C         26.98367       51.45342       49.06276
C         27.40716       50.54223       47.95349
O         27.74156       51.02499       46.88034
H         25.94573       51.21237       49.36968
H         27.66620       51.32073       49.92903
H         27.02976       52.51410       48.73497
N         27.45112       49.19595       48.15471
C         27.93904       48.28377       47.13204
C         26.97637       48.24884       45.94431
O         25.87191       47.74433       46.09844
C         28.11381       46.86909       47.72721
C         28.89385       45.95816       46.83103
O         29.48255       46.44186       45.71615
O         29.05173       44.79628       47.16047
H         27.19562       48.82898       49.08553
H         28.94346       48.65778       46.83370
H         27.11641       46.43017       47.95078
H         28.67955       46.92788       48.68332
N         27.30473       48.81654       44.74501
C         26.36298       48.89704       43.62741
C         26.19087       47.59120       42.85294
O         25.40590       47.59125       41.91447
C         26.72038       50.06353       42.66175
C         27.77906       49.80580       41.56548
C         29.16187       49.43198       42.07995
C         30.15403       49.24242       40.92388
N         31.48954       48.91600       41.42373
H         28.18550       49.33912       44.68883
H         25.38229       49.19371       44.06334
H         26.98198       50.96378       43.26081
H         25.79379       50.31377       42.09964
H         27.86526       50.73723       40.96435
H         27.42233       49.00047       40.88852
H         29.07715       48.47178       42.62552
H         29.52887       50.23836       42.74735
H         30.21307       50.17361       40.31878
H         29.79478       48.42096       40.26564
H         31.45303       48.07195       42.03581
H         32.12140       48.71969       40.61403
H         31.87529       49.71942       41.97010
N         26.87814       46.45027       43.16043
C         26.77628       45.22798       42.36535
C         25.95899       44.18624       43.09350
O         24.96622       43.71980       42.55290
C         28.17768       44.64145       42.06119
C         29.03101       45.54305       41.22277
O         30.23556       45.93499       41.67113
O         28.66363       45.88091       40.10990
H         27.49101       46.43288       43.98682
H         26.26951       45.42401       41.39439
H         28.06097       43.68353       41.50880
H         28.71502       44.41633       43.00875
N         26.36774       43.72878       44.30225
C         25.75812       42.61092       45.00339
C         26.75089       41.46942       45.01411
O         26.43787       40.37880       44.56064
H         27.20262       44.16340       44.71875
H         24.81559       42.27556       44.51869
H         25.51713       42.92991       46.04033
N         28.00913       41.70313       45.46687
C         29.12013       40.75578       45.46338
C         29.72366       40.64438       46.87087
O         30.72853       39.96585       47.02713
C         30.16191       41.21614       44.39341
C         30.70498       42.59333       44.64316
O         31.38833       43.29356       43.72941
O         30.43195       43.16879       45.67264
H         28.20268       42.64995       45.80916
H         28.77720       39.74743       45.14529
H         29.63038       41.24553       43.41616
H         31.00288       40.49727       44.30367
N         29.13921       41.26016       47.94837
C         29.61635       41.15662       49.31808
C         30.81211       42.02835       49.66292
O         31.19618       42.00153       50.82455
H         28.24682       41.75884       47.83391
H         29.81477       40.09070       49.56294
H         28.79760       41.50018       49.98739
N         31.46030       42.81235       48.75118
C         32.63125       43.62782       49.07781
C         32.50804       45.07724       48.61111
O         31.61633       45.41340       47.84765
C         33.90236       42.98291       48.48159
C         34.20555       41.62571       49.12987
O         33.80151       42.85726       47.08383
H         31.15409       42.78520       47.78054
H         32.75536       43.67246       50.18242
H         34.77459       43.63459       48.70288
H         33.16929       42.11946       46.87841
H         33.38178       40.90277       48.95101
H         35.14255       41.20965       48.70575
H         34.33777       41.75323       50.22568
N         33.37753       46.00438       49.10566
C         33.35671       47.44026       48.82613
C         34.75665       47.87938       48.38921
O         35.72711       47.57685       49.07060
C         32.84964       48.18105       50.10630
C         31.33120       47.87883       50.28385
C         33.08333       49.70388       50.03974
C         30.72403       48.38730       51.59033
H         34.06954       45.68147       49.80060
H         32.64093       47.69271       48.00998
H         33.42141       47.79901       50.98050
H         31.16071       46.78318       50.27004
H         30.76495       48.32117       49.43185
H         34.16196       49.93274       49.92498
H         32.52301       50.15455       49.20062
H         32.76736       50.19929       50.97926
H         29.64835       48.10884       51.62084
H         31.23632       47.91468       52.45392
H         30.78308       49.49001       51.67567
N         34.91233       48.65393       47.27779
C         36.18492       49.16421       46.77183
C         36.41434       50.58769       47.25999
O         35.56760       51.13142       47.95455
C         36.17538       49.14573       45.21424
C         36.05842       47.71731       44.66512
O         35.12224       49.96546       44.75137
H         34.06583       48.97910       46.80853
H         37.02768       48.54632       47.15332
H         37.13307       49.55697       44.83008
H         34.79272       49.63732       43.87502
H         36.10573       47.74334       43.55464
H         36.89890       47.09121       45.02860
H         35.09416       47.26623       44.96925
N         37.55798       51.25731       46.92644
C         37.82879       52.63943       47.33352
C         36.87782       53.64848       46.68862
O         36.93292       54.81273       47.06016
C         39.27666       53.05321       46.97198
C         40.32273       52.21517       47.71447
O         39.46256       52.93656       45.58452
H         38.26829       50.75313       46.37574
H         37.70994       52.70326       48.43899
H         39.41840       54.11581       47.28112
H         40.30783       53.40820       45.36733
H         40.25433       51.14273       47.44161
H         41.33921       52.57695       47.45047
H         40.18778       52.32232       48.81114
N         35.98687       53.28729       45.72441
C         35.05326       54.21072       45.09465
C         33.71464       54.04955       45.76956
O         33.15671       55.02716       46.24886
C         34.95247       53.91904       43.58083
C         36.30525       53.96033       42.84690
C         36.98393       55.33873       42.90496
C         38.29213       55.39590       42.09719
N         39.33827       54.54328       42.66456
H         35.93538       52.30584       45.42879
H         35.37260       55.26619       45.23360
H         34.25225       54.64573       43.11328
H         34.53039       52.90061       43.42998
H         36.12030       53.70120       41.78124
H         36.96686       53.18107       43.27748
H         37.20468       55.62559       43.95442
H         36.28349       56.08709       42.47522
H         38.65488       56.44746       42.10579
H         38.09939       55.10878       41.04015
H         40.21303       54.65927       42.10417
H         39.53312       54.83581       43.64861
H         39.06530       53.53590       42.63429
N         33.18413       52.80580       45.91936
C         31.96285       52.52882       46.66592
C         32.10060       52.91293       48.14014
O         31.09200       52.90133       48.83203
C         31.64018       51.02182       46.56649
C         31.38532       50.57886       45.11695
C         31.37440       49.08622       44.98958
O         32.47558       48.36022       45.23582
O         30.38290       48.51996       44.59389
H         33.70308       52.01568       45.51417
H         31.13374       53.12056       46.21838
H         30.75425       50.75412       47.18463
H         32.51484       50.48212       46.96944
H         32.17298       50.93149       44.42406
H         30.41944       51.01897       44.78802
N         33.30670       53.24244       48.69619
C         33.47985       53.63765       50.07792
H         33.96233       54.63789       50.10887
H         32.51876       53.69472       50.62828
H         34.14344       52.90823       50.58826
H         34.16657       53.20556       48.13607
Ca        30.97317       45.41090       44.35244
O         33.44976       46.46786       42.57146
H         34.43067       46.39107       42.47080
H         33.08516       45.81365       41.92438
O         34.12464       44.88717       45.17799
H         34.89808       44.84932       45.79552
H         34.48478       44.56558       44.31411

Ca 1.0



