%chk=holoCaM-CaMKII.loop4.water1.frame491.chk
%nprocshared=20
%mem=10GB
%nosave
#b3lyp/svp scf=(tight,noincore,xqc) Test 
#IOP(5/87=12) Density=Current Pop=(MK,readradii) iop(6/33=2) iop(6/42=6)

holoCaM-CaMKII.loop4.water1.frame491 

   -3  1 
C         99.50015       82.64835       82.75329
C         99.65040       82.35153       81.29286
O         98.91094       81.52494       80.77851
H         98.46847       83.01285       82.94349
H         99.68154       81.72759       83.34348
H        100.21344       83.43357       83.08208
N        100.57229       83.01740       80.54637
C        100.68834       82.83441       79.10879
C        101.16014       81.42762       78.76946
O        102.09689       80.95637       79.40034
C        101.66118       83.86533       78.51103
C        101.42211       84.03929       77.04079
O        102.12324       84.80635       76.40800
O        100.34252       83.48305       76.44962
H        101.16615       83.72398       81.00856
H         99.67934       83.03794       78.68518
H        102.71454       83.57972       78.72914
H        101.47592       84.86794       78.95514
N        100.58878       80.71888       77.75278
C        100.94004       79.33753       77.43950
C        101.76497       79.27760       76.15374
O        102.91596       78.86856       76.22286
C         99.64167       78.47105       77.36826
C         98.79991       78.63220       78.66424
C         99.98569       76.99349       77.10311
C         97.43063       77.95154       78.60174
H         99.86129       81.17007       77.18606
H        101.58082       78.92474       78.25165
H         99.02049       78.84144       76.52420
H         98.58904       79.70909       78.82837
H         99.36643       78.25343       79.54214
H         99.06848       76.38378       76.97999
H        100.56261       76.88699       76.16129
H        100.58575       76.57798       77.94044
H         96.84927       78.33771       77.73877
H         97.52164       76.85101       78.51966
H         96.86545       78.17726       79.53096
N        101.24458       79.63380       74.94241
C        101.98802       79.51404       73.68428
C        103.16953       80.49111       73.54973
O        103.90118       80.37197       72.57707
C        101.02533       79.56023       72.47206
C        100.28148       80.84712       72.28637
O         99.46629       80.94318       71.38358
O        100.49621       81.89212       73.09962
H        100.25953       79.91261       74.90522
H        102.41538       78.48693       73.65506
H        100.27235       78.75105       72.60289
H        101.59064       79.34872       71.53926
N        103.46783       81.42159       74.50509
C        104.70777       82.19330       74.51970
C        104.82562       83.27133       73.45697
O        105.78199       83.26434       72.69631
H        102.85622       81.51873       75.32750
H        105.56983       81.49318       74.46487
H        104.77561       82.71742       75.49824
N        103.91327       84.27727       73.41463
C        104.01325       85.48780       72.58148
C        103.85094       86.76350       73.42902
O        103.78559       87.84042       72.85158
C        103.00836       85.47690       71.38522
C        101.56723       85.29438       71.75866
O        100.68589       85.31825       70.91615
O        101.30601       84.93021       73.01088
H        103.13159       84.18922       74.07490
H        105.01469       85.54669       72.10093
H        103.27836       84.64747       70.69658
H        103.11970       86.42801       70.82114
N        103.82829       86.73344       74.79679
C        103.76235       87.92507       75.63119
C        102.35783       88.40078       75.96765
O        102.26918       89.36188       76.71819
H        104.01913       85.84908       75.28291
H        104.36067       88.74733       75.17958
H        104.24343       87.68585       76.60451
N        101.22361       87.81353       75.47561
C         99.87385       88.28590       75.81670
C         98.99703       87.16421       76.35186
O         99.42798       86.02777       76.36260
C         99.27611       89.04500       74.60955
C         99.19018       88.29782       73.26374
C         98.02840       87.34503       73.14577
N         97.07145       87.56447       72.21420
O         97.94996       86.36487       73.86711
H        101.31376       87.03016       74.81434
H         99.93173       89.03154       76.63950
H         99.97302       89.89528       74.43926
H         98.28713       89.48694       74.86004
H        100.14295       87.78252       73.02718
H         99.05682       89.07899       72.48520
H         97.11399       88.37782       71.58376
H         96.28276       86.91747       72.11250
N         97.75835       87.42383       76.86435
C         96.87499       86.39114       77.41253
C         95.51372       86.48511       76.73071
O         94.91714       87.55240       76.74506
C         96.75165       86.55813       78.95659
C         95.82083       85.49621       79.57292
C         98.13108       86.43556       79.62988
H         97.44086       88.40363       76.90787
H         97.29548       85.37521       77.24578
H         96.33491       87.56312       79.18660
H         95.74627       85.63759       80.67258
H         94.79664       85.58057       79.16172
H         96.20611       84.47230       79.37974
H         98.03632       86.56195       80.72990
H         98.57928       85.43727       79.42921
H         98.82513       87.21780       79.26037
N         94.93466       85.38130       76.17214
C         93.58653       85.37365       75.60697
C         92.59970       84.85414       76.63327
O         93.00120       84.47336       77.72161
C         93.53447       84.46956       74.35440
C         94.34145       85.00553       73.21019
N         95.35817       84.28605       72.68157
O         94.04693       86.08923       72.72950
H         95.41410       84.47837       76.26502
H         93.26111       86.40559       75.34995
H         92.49278       84.37769       73.98230
H         93.88060       83.44999       74.63101
H         95.61354       83.36457       73.06574
H         95.88577       84.64613       71.87402
N         91.26603       84.83001       76.34847
C         90.26381       84.32726       77.28015
C         90.51041       82.86292       77.57933
O         90.48927       82.47559       78.73817
C         88.84351       84.49222       76.70201
C         87.81457       84.10102       77.73708
C         87.70036       84.84293       78.92632
C         86.98144       82.98832       77.54022
C         86.77670       84.47406       79.90492
C         86.05800       82.61875       78.52411
C         85.95495       83.36061       79.71106
O         85.07473       83.01328       80.67092
H         90.95106       85.18860       75.43419
H         90.32764       84.92228       78.21709
H         88.74904       83.86860       75.78488
H         88.66491       85.54989       76.41132
H         88.32992       85.70693       79.09906
H         87.05573       82.39883       76.63486
H         86.70477       85.05328       80.81694
H         85.42753       81.75334       78.36559
H         84.49195       82.24624       80.58154
N         90.76909       81.99858       76.56068
C         91.08709       80.58955       76.75342
C         92.26879       80.42135       77.70197
O         92.15253       79.66771       78.65854
C         91.30940       79.89294       75.38063
C         92.51910       80.39515       74.56928
C         92.52390       79.81530       73.18389
O         92.47612       80.55359       72.21214
O         92.58652       78.48263       73.00326
H         90.76393       82.37710       75.60178
H         90.20334       80.08717       77.20776
H         90.38701       80.05917       74.78041
H         91.41776       78.79633       75.53334
H         93.46111       80.10026       75.07405
H         92.48891       81.49949       74.47916
N         93.42923       81.11403       77.51234
C         94.60668       80.94085       78.36486
C         94.38537       81.45903       79.78346
O         95.18006       81.13451       80.65474
C         95.83958       81.66458       77.77638
C         96.13726       81.25485       76.32334
C         97.34090       81.95545       75.78051
O         98.34271       81.24021       75.25325
O         97.39674       83.17231       75.75684
H         93.47092       81.76713       76.71999
H         94.82841       79.85086       78.40188
H         96.72688       81.44058       78.41004
H         95.65812       82.75909       77.80710
H         95.29916       81.53099       75.65855
H         96.28729       80.15685       76.26095
N         93.36982       82.32120       80.07089
C         93.11959       82.88907       81.37879
H         92.08469       82.63776       81.69389
H         93.82729       82.51670       82.14683
H         93.20977       83.99504       81.31787
H         92.75193       82.63043       79.31937
Ca        99.79610       84.13723       74.38862
O         98.22577       83.51149       71.79034
H         98.54214       83.42258       70.85701
H         98.43652       84.44670       72.03309

Ca 1.0



