%chk=holoCaM.loop4.water3.frame281.chk
%nprocshared=20
%mem=10GB
%nosave
#b3lyp/svp scf=(tight,noincore,xqc) Test 
#IOP(5/87=12) Density=Current Pop=(MK,readradii) iop(6/33=2) iop(6/42=6)

holoCaM.loop4.water3.frame281 

   -3  1 
C         47.01888       73.84391       72.68488
C         48.15625       72.89502       72.46094
O         49.27449       73.36584       72.31458
H         46.05827       73.30635       72.81700
H         47.22132       74.43957       73.60142
H         46.93492       74.53471       71.81981
N         47.95607       71.54322       72.41669
C         49.05914       70.60070       72.25554
C         48.55010       69.17079       72.08754
O         47.85302       68.69233       72.97247
C         49.98309       70.65308       73.49974
C         51.24729       69.87016       73.31328
O         52.11156       69.74496       74.33740
O         51.52397       69.38909       72.22804
H         46.99272       71.18287       72.49608
H         49.63146       70.89496       71.35201
H         49.42865       70.26045       74.37968
H         50.29665       71.68793       73.73783
N         48.88738       68.42151       70.99110
C         48.44852       67.03594       70.80278
C         49.61087       66.02673       70.71720
O         49.31599       64.83971       70.71146
C         47.49782       66.92033       69.56570
C         48.22478       67.23108       68.22981
C         46.26130       67.82165       69.76076
C         47.36219       66.99186       66.98876
H         49.46708       68.85460       70.26278
H         47.85676       66.71818       71.68878
H         47.13726       65.86832       69.52023
H         49.10857       66.56527       68.13806
H         48.57517       68.28170       68.20997
H         45.75272       67.57306       70.71584
H         46.54802       68.89462       69.77847
H         45.51733       67.67012       68.95267
H         46.49922       67.68757       66.94728
H         47.97893       67.16889       66.08420
H         46.99490       65.94417       66.96422
N         50.92822       66.39365       70.60550
C         52.02924       65.42591       70.43713
C         53.25822       65.69663       71.32921
O         54.20638       64.92920       71.23456
C         52.42880       65.34334       68.94241
C         52.64633       66.69938       68.35936
O         53.49896       67.55230       68.93935
O         51.91343       67.09956       67.46803
H         51.15582       67.39285       70.52298
H         51.68971       64.40194       70.70639
H         51.59150       64.86772       68.38413
H         53.32663       64.70408       68.80635
N         53.31413       66.70927       72.24296
C         54.42377       66.89880       73.17775
C         55.76143       67.34495       72.58910
O         56.71218       67.41053       73.35548
H         52.49440       67.30480       72.36747
H         54.57699       65.94261       73.72382
H         54.13401       67.66337       73.93108
N         55.93488       67.66817       71.27535
C         57.23815       68.02067       70.69867
C         57.84908       69.27247       71.32523
O         59.00198       69.22721       71.73014
C         57.17002       68.15169       69.15686
C         56.48582       69.39143       68.65392
O         55.21583       69.65630       68.99209
O         57.09064       70.17510       67.93917
H         55.12269       67.61924       70.65501
H         57.92259       67.15999       70.87525
H         56.66382       67.25424       68.73988
H         58.21103       68.15983       68.76396
N         57.11357       70.41327       71.46184
C         57.61067       71.64477       72.06019
C         57.20381       72.90201       71.30181
O         57.49413       73.97830       71.80491
H         56.12182       70.37500       71.20723
H         58.71481       71.62075       72.19183
H         57.15039       71.73252       73.06656
N         56.51529       72.86652       70.12095
C         56.02101       74.05635       69.42899
C         54.51111       73.97048       69.22506
O         53.90071       72.97028       69.57663
C         56.72269       74.19261       68.05894
C         58.22321       74.47509       68.20412
C         58.86374       74.68357       66.85551
N         58.89528       73.68674       65.94074
O         59.36260       75.76643       66.58656
H         56.31471       71.96286       69.67845
H         56.21998       74.97675       70.02088
H         56.29355       75.04823       67.49672
H         56.54948       73.27106       67.46100
H         58.73263       73.63935       68.72783
H         58.34875       75.40020       68.81061
H         58.48921       72.76374       66.15100
H         59.33325       73.83682       65.01973
N         53.85750       74.99556       68.60629
C         52.44423       74.99405       68.25158
C         52.34060       74.81228       66.74951
O         52.99372       75.52167       65.99646
C         51.75210       76.30112       68.73947
C         50.35845       76.49661       68.11357
C         51.60017       76.28356       70.26850
H         54.40597       75.81299       68.30034
H         51.91133       74.14192       68.72119
H         52.36760       77.17645       68.43670
H         50.43321       76.59218       67.01000
H         49.69183       75.64721       68.36017
H         49.89472       77.43514       68.48434
H         52.58427       76.17430       70.76716
H         51.12772       77.22578       70.62033
H         50.94570       75.43777       70.57829
N         51.47361       73.88496       66.25774
C         51.26640       73.60187       64.84484
C         49.96474       74.27597       64.41137
O         49.31538       74.88992       65.24315
C         51.20267       72.05364       64.71824
C         51.30373       71.42073       63.35168
N         51.10148       70.08804       63.22620
O         51.60334       72.07537       62.36714
H         50.86955       73.38397       66.92504
H         52.11000       74.01362       64.24912
H         50.25856       71.71767       65.20192
H         52.04157       71.61825       65.29687
H         50.86052       69.51324       64.04784
H         51.17353       69.62893       62.30635
N         49.51940       74.22908       63.12849
C         48.24143       74.79008       62.70063
C         47.09773       74.08468       63.41321
O         46.26729       74.74888       64.01790
C         48.10225       74.62494       61.17290
C         46.81189       75.18735       60.63082
C         46.52008       76.55722       60.74616
C         45.89385       74.34145       59.98750
C         45.32990       77.07068       60.22196
C         44.70576       74.85656       59.46454
C         44.42077       76.22464       59.57768
O         43.28173       76.73564       59.06917
H         50.10165       73.77598       62.41998
H         48.21933       75.87769       62.93550
H         48.18272       73.54468       60.92061
H         48.94713       75.14508       60.67141
H         47.21474       77.22926       61.23415
H         46.09781       73.28251       59.88744
H         45.11684       78.12843       60.31216
H         44.01039       74.19134       58.96875
H         42.63352       76.18500       58.60711
N         47.01594       72.72294       63.38887
C         45.94951       71.94069       64.02035
C         45.85387       72.08683       65.54470
O         44.96276       71.47832       66.12110
C         46.08199       70.45198       63.61308
C         47.34721       69.75268       64.14246
C         47.43755       68.35996       63.58410
O         48.39761       68.03202       62.90482
O         46.45724       67.46749       63.82258
H         47.73943       72.22355       62.85155
H         44.98364       72.29468       63.59756
H         46.08247       70.40701       62.50095
H         45.18906       69.89193       63.96946
H         47.32062       69.70311       65.25152
H         48.25782       70.31184       63.84478
N         46.69002       72.89466       66.25818
C         46.59976       73.10867       67.69707
C         46.12451       74.52328       67.95634
O         45.10276       74.69244       68.60648
C         47.97655       72.88484       68.34001
C         48.49519       71.47618       68.06377
C         49.88092       71.26213       68.57628
O         50.44631       70.07614       68.35011
O         50.49277       72.12145       69.18920
H         47.42886       73.40830       65.77401
H         45.87358       72.40557       68.16436
H         47.91859       73.05439       69.43804
H         48.69975       73.60642       67.90949
H         48.53071       71.29623       66.96909
H         47.81634       70.72809       68.52609
N         46.80836       75.58957       67.45268
C         46.40004       76.96681       67.62112
H         45.47585       77.06345       68.22664
H         47.21512       77.53173       68.11903
H         46.21572       77.41288       66.62073
H         47.65847       75.42835       66.90227
Ca        52.47595       69.51971       69.03629
O         54.00581       70.81106       72.31294
H         54.23683       69.88994       72.59239
H         54.44259       71.39057       72.98541
O         52.04693       73.14738       71.64433
H         52.66255       73.19188       72.41736
H         51.79807       72.19217       71.57652
O         53.68772       70.01234       66.30573
H         54.06499       69.15883       66.63464
H         54.19452       70.71737       66.78242

Ca 1.0



