%chk=holoCaM.loop2.water2.frame437.chk
%nprocshared=20
%mem=10GB
%nosave
#b3lyp/svp scf=(tight,noincore,xqc) Test 
#IOP(5/87=12) Density=Current Pop=(MK,readradii) iop(6/33=2) iop(6/42=6)

holoCaM.loop2.water2.frame437 

   -2  1 
C        107.96733      108.87321       60.01033
C        108.39360      109.35137       58.65587
O        108.42716      108.54590       57.73544
H        106.94032      108.45319       59.93703
H        108.65854      108.08249       60.36510
H        107.95119      109.70294       60.74705
N        108.68469      110.66603       58.43910
C        108.94357      111.17211       57.10215
C        110.27319      110.67638       56.54679
O        111.30799      110.99865       57.11506
C        108.92194      112.71810       57.07068
C        108.76054      113.19952       55.65947
O        108.78472      114.38123       55.39551
O        108.42481      112.31232       54.71724
H        108.60901      111.33126       59.22399
H        108.09894      110.80768       56.48256
H        109.84534      113.12468       57.53786
H        108.04529      113.10759       57.63236
N        110.31995      109.88338       55.43780
C        111.57549      109.36550       54.90041
C        112.42541      110.41540       54.18530
O        113.60526      110.15331       53.99653
C        111.30116      108.21190       53.92974
H        109.43051      109.57941       55.01389
H        112.15673      108.94112       55.74988
H        112.25513      107.76918       53.57107
H        110.72171      107.41610       54.44510
H        110.71671      108.56982       53.05460
N        111.89098      111.56168       53.66394
C        112.66962      112.53176       52.88369
C        112.59558      113.95278       53.44298
O        113.20346      114.83527       52.85104
C        112.28840      112.48096       51.38473
C        110.83039      112.65574       51.09581
O        109.97079      111.68074       51.43748
O        110.43311      113.62128       50.46389
H        110.88118      111.72943       53.77289
H        113.75046      112.27009       52.90407
H        112.58468      111.49619       50.96300
H        112.87577      113.25444       50.84187
N        111.95829      114.24674       54.61205
C        112.04188      115.55482       55.24449
C        111.25129      116.67228       54.59255
O        111.33703      117.77592       55.11469
H        111.50611      113.49570       55.14958
H        113.11239      115.85051       55.31438
H        111.65552      115.46890       56.28289
N        110.44273      116.50575       53.50103
C        109.67231      117.62992       52.95560
C        108.58640      118.13635       53.91892
O        107.96991      119.14774       53.61366
C        109.03857      117.29041       51.58686
C        107.86522      116.34868       51.69075
N        106.63323      116.73960       51.28548
O        108.02362      115.23146       52.15029
H        110.39478      115.58521       53.04192
H        110.39939      118.45090       52.76260
H        109.80960      116.86381       50.90925
H        108.68826      118.24015       51.12615
H        106.47430      117.68033       50.89689
H        105.82810      116.10423       51.36200
N        108.28380      117.47543       55.07808
C        107.27522      117.90049       56.03060
C        106.19496      116.85470       56.27073
O        105.65941      116.83914       57.37049
H        108.80209      116.63727       55.32971
H        106.78727      118.84990       55.72579
H        107.78796      118.10277       56.99675
N        105.71539      116.05798       55.26574
C        104.52331      115.20525       55.40980
C        104.76804      113.76482       54.95323
O        105.87972      113.45385       54.55819
C        103.36730      115.85202       54.61390
C        103.01138      117.22935       55.18831
O        103.73259      115.98066       53.26482
H        106.14488      116.13581       54.33102
H        104.20409      115.14756       56.47428
H        102.46414      115.20940       54.70492
H        102.89418      116.09923       52.74805
H        102.72358      117.13330       56.25764
H        103.86757      117.93187       55.10819
H        102.15455      117.66025       54.63134
N        103.76544      112.82500       54.99791
C        103.93724      111.41935       54.61020
C        103.00582      111.01897       53.45284
O        101.79293      111.05354       53.59916
C        103.77349      110.47121       55.85026
C        102.38295      110.56750       56.54448
C        104.91345      110.74254       56.84759
C        102.20381      109.59820       57.71534
H        102.84022      113.10986       55.34843
H        104.97519      111.26034       54.24429
H        103.90190      109.42658       55.49195
H        101.58686      110.31115       55.82101
H        102.20234      111.59535       56.92094
H        104.83725      111.76432       57.27522
H        104.92044      110.00276       57.67307
H        105.88507      110.63923       56.32958
H        102.37092      108.55736       57.37822
H        102.89273      109.83217       58.55133
H        101.16804      109.67982       58.10787
N        103.53215      110.60587       52.26034
C        102.75091      110.06606       51.13596
C        102.22081      108.66518       51.46271
O        102.39922      108.20445       52.57456
C        103.65037      110.00756       49.87062
C        104.00331      111.36829       49.32946
O        103.47804      112.48873       49.86010
O        104.72652      111.45548       48.35067
H        104.55560      110.65081       52.15032
H        101.88655      110.72669       50.90273
H        103.13798      109.49819       49.03223
H        104.57367      109.43439       50.10223
N        101.57522      107.91865       50.51590
C        101.05944      106.56438       50.73195
C        102.10777      105.57768       51.26697
O        101.82793      104.98958       52.30364
C        100.43792      106.02095       49.42051
C         99.88966      104.62009       49.57258
C         98.79599      104.36841       50.41774
C        100.47316      103.55031       48.86880
C         98.29463      103.06981       50.55440
C         99.97265      102.25298       49.01370
C         98.88326      102.01301       49.85452
H        101.43763      108.33028       49.58258
H        100.24357      106.62733       51.48641
H        101.20760      106.03350       48.62591
H         99.62192      106.69232       49.07665
H         98.32896      105.17693       50.96524
H        101.32042      103.71622       48.21481
H         97.44927      102.88238       51.20347
H        100.42981      101.43332       48.47403
H         98.49543      101.00833       49.96348
N        103.30341      105.29848       50.65339
C        104.23676      104.28429       51.13848
C        104.77913      104.62202       52.51553
O        104.90270      103.73054       53.34300
C        105.31744      104.23851       50.04694
C        105.31125      105.64221       49.48612
C        103.81778      105.96168       49.46684
H        103.77973      103.27025       51.18651
H        106.30488      103.83891       50.36447
H        104.93539      103.59178       49.22459
H        105.82202      106.30234       50.21346
H        105.82353      105.77311       48.50963
H        103.70686      107.06239       49.48178
H        103.34138      105.51556       48.57034
N        105.09244      105.90128       52.83335
C        105.64134      106.33053       54.11484
C        104.66942      105.97341       55.22933
O        105.05620      105.25714       56.14279
C        105.97085      107.84012       54.00885
C        107.09075      108.03793       52.95089
C        107.22125      109.45136       52.48027
O        107.02332      109.72943       51.30807
O        107.59528      110.41355       53.32448
H        104.89958      106.62080       52.12512
H        106.60099      105.80131       54.31378
H        106.30420      108.26305       54.98215
H        105.04719      108.37307       53.69399
H        106.88732      107.44266       52.04147
H        108.05776      107.67342       53.35981
N        103.36912      106.36547       55.17878
C        102.38317      105.92747       56.14309
H        101.38674      106.34506       55.88005
H        102.30799      104.81862       56.12659
H        102.66141      106.25989       57.16287
H        103.05370      106.95295       54.40382
Ca       107.75307      112.54150       52.63043
O        107.48461      113.40363       49.50536
H        106.91995      112.59617       49.60007
H        106.84305      114.15769       49.50387
O        105.08760      113.74989       51.78646
H        105.34587      112.80809       51.63607
H        104.13408      113.70646       52.04645

Ca 1.0



