%chk=holoCaM.loop2.water3.frame380.chk
%nprocshared=20
%mem=10GB
%nosave
#b3lyp/svp scf=(tight,noincore,xqc) Test 
#IOP(5/87=12) Density=Current Pop=(MK,readradii) iop(6/33=2) iop(6/42=6)

holoCaM.loop2.water3.frame380 

   -2  1 
C         86.38274      107.35216       94.22991
C         85.24286      106.83320       95.05069
O         84.73358      105.76513       94.74089
H         87.22356      106.62898       94.26204
H         86.04519      107.47725       93.17958
H         86.73886      108.33414       94.60580
N         84.78343      107.53537       96.12360
C         83.65871      107.07651       96.92329
C         82.40511      107.05213       96.06611
O         82.01332      108.08724       95.54743
C         83.48889      107.96626       98.17084
C         82.32041      107.53684       99.00364
O         82.20133      106.38249       99.36813
O         81.38320      108.42711       99.34117
H         85.25477      108.41714       96.38071
H         83.88743      106.05269       97.29552
H         83.35891      109.03372       97.88518
H         84.40799      107.88429       98.79098
N         81.75212      105.87673       95.84280
C         80.57113      105.76150       94.99554
C         79.32562      106.42340       95.58647
O         78.33475      106.50513       94.87435
C         80.28026      104.28263       94.71316
H         82.15530      105.02013       96.23922
H         80.81054      106.24462       94.02258
H         79.43634      104.17524       94.00059
H         81.17706      103.80194       94.26338
H         80.02586      103.75335       95.65521
N         79.28837      106.90876       96.86413
C         78.13644      107.60646       97.44330
C         78.46891      109.06864       97.76924
O         77.58548      109.78555       98.21580
C         77.57413      106.79543       98.63524
C         78.59223      106.45559       99.68680
O         78.97084      105.16683       99.81443
O         79.10216      107.32552      100.36797
H         80.11457      106.79212       97.46503
H         77.30726      107.66283       96.70407
H         77.20641      105.83267       98.21484
H         76.70185      107.30848       99.09444
N         79.68803      109.60324       97.46264
C         80.03224      111.01443       97.52677
C         80.24208      111.61988       98.90120
O         80.61143      112.78606       98.92878
H         80.39843      109.00623       97.03380
H         79.27374      111.60022       96.96336
H         81.00240      111.14144       96.99667
N         80.04096      110.95071      100.07451
C         80.23534      111.60919      101.36622
C         81.70840      111.72297      101.76535
O         81.97583      112.46360      102.70222
C         79.45000      110.92936      102.51155
C         77.94591      111.04559      102.37192
N         77.25506      110.36759      101.42639
O         77.33514      111.75715      103.15595
H         79.69210      109.98839      100.05028
H         79.83063      112.64517      101.28714
H         79.71959      111.46525      103.44972
H         79.75327      109.86884      102.63593
H         77.71703      109.72064      100.78006
H         76.23118      110.46465      101.36128
N         82.71052      111.02524      101.14744
C         84.11696      111.17467      101.50889
C         84.77961      109.91509      102.04650
O         85.96869      109.99870      102.32083
H         82.48757      110.38145      100.37894
H         84.25493      111.96185      102.28152
H         84.67002      111.50656      100.60420
N         84.11600      108.73380      102.24672
C         84.77174      107.53522      102.78290
C         84.69539      106.40788      101.77174
O         83.60990      105.94695      101.46128
C         84.13749      107.11389      104.12883
C         84.77891      105.83219      104.68146
O         84.30927      108.13556      105.07640
H         83.11408      108.67653      102.02091
H         85.84403      107.74523      102.98836
H         83.05325      106.90333      103.99405
H         83.62257      108.82651      104.88777
H         84.30686      105.55840      105.64795
H         84.63509      104.97883      103.98474
H         85.86849      105.97722      104.83920
N         85.83746      105.91333      101.22562
C         85.87525      104.88421      100.19243
C         85.81670      103.50724      100.82934
O         86.58136      103.25009      101.74978
C         87.18224      105.04006       99.35122
C         87.23525      106.45005       98.70420
C         87.27026      103.94770       98.26566
C         88.56019      106.75515       98.00705
H         86.73193      106.33686      101.51662
H         85.03173      105.02405       99.47785
H         88.05473      104.92798      100.03330
H         87.11402      107.23122       99.48242
H         86.40266      106.56135       97.98187
H         87.30104      102.94976       98.73479
H         86.39977      104.00417       97.57561
H         88.20399      104.02227       97.67733
H         89.39796      106.66356       98.73102
H         88.73846      106.08280       97.14570
H         88.53733      107.79525       97.62032
N         85.02042      102.53324      100.29842
C         85.05324      101.14039      100.74758
C         85.81883      100.32695       99.71379
O         86.10139      100.86076       98.65108
C         83.61833      100.60552      100.93645
C         82.75747      101.60853      101.66095
O         81.77123      102.19183      100.95139
O         83.01357      101.96594      102.79864
H         84.45730      102.75860       99.46714
H         85.60188      101.07653      101.71210
H         83.61581       99.61463      101.43896
H         83.17090      100.47217       99.92500
N         86.25988       99.06054       99.95244
C         87.10096       98.37236       98.97425
C         86.35926       98.12606       97.65954
O         86.88451       98.54972       96.64070
C         87.74945       97.08632       99.53312
C         88.65321       96.45321       98.49483
C         89.78904       97.13546       98.01650
C         88.35255       95.18199       97.97667
C         90.60034       96.55723       97.03583
C         89.16631       94.60896       96.99451
C         90.28819       95.29596       96.52376
H         86.06136       98.61880      100.86364
H         87.96233       99.04468       98.75570
H         86.98587       96.36260       99.85659
H         88.35126       97.33180      100.43489
H         90.04752       98.11536       98.39717
H         87.48158       94.63961       98.32229
H         91.46950       97.08914       96.67000
H         88.92393       93.63319       96.59459
H         90.91488       94.85169       95.76130
N         85.15228       97.47681       97.57300
C         84.42963       97.26606       96.31990
C         84.29937       98.52796       95.49061
O         84.53160       98.48664       94.29034
C         83.04086       96.80326       96.78056
C         83.37337       96.04367       98.03891
C         84.38590       96.97262       98.69597
H         84.93573       96.46047       95.74170
H         82.42910       97.67778       97.10141
H         82.47119       96.23609       96.01362
H         82.50863       95.77533       98.68119
H         83.90093       95.10845       97.73741
H         83.89872       97.83156       99.20865
H         84.95546       96.36813       99.41700
N         83.97007       99.70175       96.09621
C         83.82852      100.97451       95.39852
C         85.08944      101.31602       94.62663
O         85.00251      101.51996       93.42345
C         83.47873      102.09567       96.39998
C         82.09381      101.85337       97.03184
C         81.68463      102.91701       98.00199
O         82.52946      103.90033       98.35981
O         80.56555      102.88031       98.48486
H         83.84144       99.68393       97.11933
H         82.99120      100.90196       94.66792
H         83.44791      103.06488       95.85674
H         84.26354      102.16325       97.18294
H         82.05699      100.88712       97.57471
H         81.34405      101.82208       96.21512
N         86.30213      101.36401       95.23912
C         87.51840      101.64619       94.50890
H         88.39276      101.58674       95.19094
H         87.65418      100.89946       93.69646
H         87.47038      102.66535       94.07120
H         86.37182      101.16838       96.24472
Ca        80.60885      104.14822      101.02021
O         81.50063      104.41849      103.91936
H         82.33753      104.36123      103.39469
H         81.79075      104.72348      104.81467
O         80.84731      106.97195      102.65217
H         79.87981      106.98480      102.85965
H         80.98689      107.74761      102.05462
O         78.59225      103.22784      102.96251
H         79.24000      102.51020      102.74697
H         77.77700      102.98531      102.45605

Ca 1.0



