%chk=holoCaM-CaMKII.loop1.water2.frame411.chk
%nprocshared=20
%mem=10GB
%nosave
#b3lyp/svp scf=(tight,noincore,xqc) Test 
#IOP(5/87=12) Density=Current Pop=(MK,readradii) iop(6/33=2) iop(6/42=6)

holoCaM-CaMKII.loop1.water2.frame411 

   0  1 
C         54.36943       47.72797       46.57637
C         55.84363       47.96264       46.71395
O         56.61012       47.28242       46.05911
H         53.87992       48.65455       46.20786
H         54.16513       46.90596       45.85778
H         53.94317       47.45676       47.56454
N         56.29281       48.94573       47.54016
C         57.69270       49.32543       47.76189
C         58.46442       48.24131       48.53856
O         58.72627       48.42851       49.71997
C         57.67279       50.66008       48.55096
C         59.00995       51.29695       48.77040
O         60.03413       50.82734       48.30018
O         59.06224       52.42277       49.49937
H         55.56198       49.49882       48.01726
H         58.18472       49.54276       46.78953
H         57.19832       50.48882       49.54236
H         57.05520       51.40308       47.99963
N         58.84710       47.06920       47.95294
C         59.42886       45.96281       48.71149
C         60.90301       46.14071       49.07017
O         61.41217       45.27919       49.77378
C         59.19616       44.62037       47.98003
C         57.69001       44.31420       47.86425
C         57.43162       42.89442       47.34486
C         55.93932       42.51458       47.38152
N         55.13140       43.29905       46.44628
H         58.65052       46.91762       46.95867
H         58.87816       45.87781       49.67521
H         59.65590       43.81096       48.58793
H         59.67843       44.62137       46.97698
H         57.20500       45.05874       47.20421
H         57.23769       44.39013       48.87721
H         57.96326       42.18337       48.01444
H         57.83568       42.77421       46.31651
H         55.54572       42.63938       48.41568
H         55.84805       41.43901       47.11397
H         55.14265       44.31275       46.69654
H         55.48358       43.16511       45.47090
H         54.14202       42.96352       46.49471
N         61.64728       47.21331       48.66782
C         63.04694       47.40996       49.07381
C         63.22460       48.62318       49.98953
O         64.32913       48.82964       50.47392
C         63.98105       47.43813       47.84477
C         63.70962       48.54226       46.86027
O         62.72860       49.43858       47.07504
O         64.37411       48.60868       45.83938
H         61.19913       47.92393       48.07647
H         63.38623       46.54572       49.68559
H         63.87241       46.46854       47.31037
H         65.03648       47.51721       48.18741
N         62.17305       49.41768       50.33865
C         62.22961       50.44225       51.36717
C         63.14540       51.60671       51.07520
O         64.00366       51.89195       51.89784
H         61.24582       49.23940       49.93480
H         62.51962       49.96810       52.33056
H         61.20805       50.86073       51.49802
N         62.97336       52.37081       49.96133
C         63.69294       53.62691       49.73149
C         62.74447       54.82304       49.59054
O         63.23828       55.94122       49.51970
C         64.66382       53.48913       48.54305
C         64.03892       52.90443       47.31280
O         64.47667       51.86497       46.84619
O         63.00441       53.51465       46.71675
H         62.28110       52.06137       49.26323
H         64.32332       53.87592       50.61306
H         65.49096       52.81481       48.85411
H         65.11009       54.47845       48.30264
N         61.38722       54.68353       49.57102
C         60.44361       55.78896       49.54565
C         59.64868       55.86732       48.25728
O         58.73235       56.67090       48.20611
H         60.97841       53.74784       49.59787
H         60.94591       56.77087       49.68405
H         59.74345       55.65303       50.39926
N         59.99001       55.13640       47.15142
C         59.31801       55.29308       45.85929
C         58.92467       53.95428       45.23942
O         59.27322       52.89829       45.73838
C         60.21418       56.11859       44.87706
C         60.33006       57.57213       45.33475
O         61.51619       55.60652       44.72046
H         60.80644       54.52007       47.19866
H         58.36623       55.85098       45.99193
H         59.73124       56.14440       43.87727
H         61.56159       54.69676       45.09852
H         59.32147       58.03379       45.39601
H         60.82758       57.64075       46.32411
H         60.92972       58.14710       44.59685
N         58.13370       53.97945       44.12487
C         57.62747       52.82048       43.39765
C         58.03208       52.94629       41.93315
O         57.80988       53.98458       41.33150
C         56.07526       52.76362       43.57044
C         55.76020       52.27934       45.01385
C         55.39771       51.84712       42.52776
C         54.27586       52.28703       45.37698
H         57.82418       54.89909       43.78147
H         58.03535       51.86745       43.79225
H         55.66304       53.78474       43.40958
H         56.27782       52.93453       45.74571
H         56.14830       51.24353       45.14786
H         54.29546       51.86594       42.63320
H         55.59513       52.21319       41.49881
H         55.75319       50.80276       42.61647
H         54.15767       51.93961       46.42537
H         53.86786       53.31543       45.29157
H         53.69104       51.59750       44.73621
N         58.53862       51.85904       41.28015
C         58.84154       51.83019       39.85167
C         57.75367       51.04952       39.12201
O         56.85548       50.52523       39.76334
C         60.22328       51.15944       39.62406
C         61.33984       51.91144       40.36271
O         60.15300       49.81801       40.05398
H         58.63256       50.97872       41.79593
H         58.84693       52.86062       39.43501
H         60.46025       51.17444       38.53786
H         61.06239       49.48648       40.27047
H         61.37968       52.97326       40.04459
H         61.16614       51.85030       41.45417
H         62.32310       51.44169       40.14302
N         57.77812       50.92859       37.76114
C         56.79354       50.12565       37.03116
C         56.86423       48.66777       37.45713
O         55.85144       47.98278       37.41045
C         56.99062       50.21800       35.49790
C         56.74570       51.63398       34.97129
O         58.28748       49.81251       35.13709
H         58.52801       51.40370       37.23985
H         55.77548       50.51039       37.26694
H         56.23264       49.57068       34.99424
H         58.26892       48.82508       35.03627
H         55.71281       51.96051       35.21779
H         57.46525       52.35869       35.40450
H         56.86076       51.64518       33.86642
N         58.04445       48.12674       37.86616
C         58.19694       46.75432       38.33515
C         57.40177       46.56447       39.61426
O         56.56788       45.67301       39.68024
C         59.69104       46.44742       38.59786
C         60.53123       46.54231       37.30996
C         62.02690       46.39583       37.60654
C         62.85293       46.55999       36.32269
N         64.28544       46.51082       36.61032
H         58.87739       48.73283       37.85461
H         57.83804       46.04336       37.55706
H         59.79830       45.42202       39.01560
H         60.08540       47.16747       39.34686
H         60.38876       47.53214       36.83024
H         60.20015       45.75991       36.59231
H         62.23073       45.40325       38.06396
H         62.32589       47.19042       38.32563
H         62.61637       47.54090       35.85194
H         62.58837       45.75385       35.60276
H         64.53698       45.59141       37.03972
H         64.81712       46.62865       35.71767
H         64.54557       47.28842       37.26029
N         57.61556       47.39518       40.67422
C         56.92661       47.28499       41.95871
C         55.42407       47.54551       41.86638
O         54.75241       47.37317       42.87524
C         57.55853       48.26760       42.97093
C         59.02117       47.90060       43.28692
C         59.66075       48.88642       44.21800
O         60.14055       48.47964       45.40727
O         59.79078       50.05180       43.88428
H         58.32339       48.13290       40.56043
H         57.06362       46.25102       42.34618
H         56.98714       48.26342       43.91587
H         57.49022       49.28936       42.55772
H         59.63339       47.87203       42.36295
H         59.04335       46.89133       43.75213
N         54.81363       47.94988       40.71686
C         53.38263       48.14558       40.63376
H         53.06122       48.93113       41.34932
H         53.10289       48.46023       39.60547
H         52.85777       47.19334       40.86397
H         55.36166       48.12658       39.86878
Ca        62.08413       50.92029       45.51131
O         63.42890       49.73482       42.97142
H         64.03465       50.06727       43.68013
H         63.67522       50.26551       42.17330
O         62.30687       52.88886       43.47969
H         63.10828       53.46779       43.52061
H         61.60064       53.46099       43.08649

Ca 1.0



