%chk=holoCaM-CaMKII.loop1.water2.frame461.chk
%nprocshared=20
%mem=10GB
%nosave
#b3lyp/svp scf=(tight,noincore,xqc) Test 
#IOP(5/87=12) Density=Current Pop=(MK,readradii) iop(6/33=2) iop(6/42=6)

holoCaM-CaMKII.loop1.water2.frame461 

   0  1 
C         81.73592       71.55289       35.27821
C         83.19570       71.85541       35.44656
O         83.61521       72.92485       35.04097
H         81.13362       72.31941       35.80901
H         81.48002       71.57079       34.19787
H         81.47596       70.55307       35.68515
N         84.02291       70.95909       36.05368
C         85.45945       71.15031       36.25602
C         86.20560       71.17465       34.92045
O         86.69533       70.14288       34.48056
C         85.97189       70.02459       37.18685
C         87.44960       70.06501       37.41810
O         87.98485       71.05450       37.88598
O         88.18817       68.98526       37.11435
H         83.59377       70.09181       36.41363
H         85.64195       72.10758       36.79436
H         85.71561       69.03262       36.75453
H         85.46090       70.11105       38.16936
N         86.32198       72.33668       34.21637
C         86.99913       72.43260       32.92791
C         88.50328       72.22345       33.08564
O         89.03737       71.29745       32.49191
C         86.71835       73.80906       32.26797
C         85.23716       74.06800       31.90062
C         84.71767       73.11752       30.80445
C         83.33244       73.50724       30.25494
N         82.27133       73.40253       31.25722
H         85.89847       73.18867       34.60500
H         86.60295       71.64851       32.24868
H         87.31811       73.89984       31.33628
H         87.04446       74.61841       32.95682
H         85.17826       75.10633       31.50707
H         84.59533       74.01251       32.80327
H         84.67944       72.07249       31.17607
H         85.42513       73.16052       29.94810
H         83.09272       72.82127       29.41172
H         83.36516       74.54245       29.84800
H         82.42394       74.08520       32.03257
H         81.35656       73.62440       30.80050
H         82.22839       72.42898       31.63634
N         89.25271       73.07463       33.84627
C         90.71568       72.98997       33.98332
C         91.23390       71.73678       34.70232
O         92.44815       71.60836       34.78973
C         91.29253       74.27295       34.64315
C         90.56795       74.63475       35.89780
O         90.38788       73.73156       36.87066
O         89.97310       75.69997       35.95821
H         88.75536       73.85730       34.29493
H         91.15833       72.96095       32.96328
H         91.16796       75.11944       33.93088
H         92.38045       74.16421       34.83669
N         90.42760       70.74428       35.18084
C         90.97556       69.49126       35.69231
C         91.56559       69.55563       37.09166
O         92.06502       68.53287       37.53980
H         89.40695       70.81152       35.07671
H         91.73442       69.11008       34.97482
H         90.17054       68.73080       35.71989
N         91.52294       70.68084       37.86260
C         92.04434       70.74045       39.23206
C         91.24196       69.90455       40.24644
O         91.59629       69.92748       41.41721
C         92.20569       72.21252       39.69155
C         90.94742       73.02432       39.80055
O         89.74440       72.49327       39.53158
O         91.02403       74.19777       40.12509
H         91.13026       71.53418       37.45415
H         93.08383       70.34379       39.22194
H         92.87385       72.72479       38.96483
H         92.70995       72.23049       40.68212
N         90.19413       69.10637       39.87890
C         89.48937       68.22126       40.79450
C         88.39436       68.89588       41.59044
O         87.71932       68.19153       42.32890
H         89.92902       69.03015       38.89420
H         90.21242       67.69456       41.45571
H         88.97775       67.44095       40.18962
N         88.13568       70.23101       41.49278
C         87.04740       70.89306       42.20482
C         86.13739       71.65746       41.25071
O         86.48559       71.87773       40.09936
C         87.61595       71.84717       43.28659
C         88.25132       71.08319       44.45592
O         88.53381       72.75711       42.73101
H         88.73275       70.81002       40.89452
H         86.40429       70.13888       42.70985
H         86.78316       72.43468       43.72973
H         89.39458       72.28354       42.57967
H         88.63159       71.80607       45.20907
H         87.48810       70.43979       44.94312
H         89.09379       70.44754       44.11183
N         84.92254       72.08136       41.69748
C         83.97027       72.88128       40.93191
C         83.70318       74.14701       41.72735
O         83.43426       74.05681       42.91873
C         82.65526       72.08582       40.66940
C         82.95927       70.84537       39.78714
C         81.60810       72.99099       39.97730
C         81.75398       69.92993       39.55536
H         84.64863       71.81999       42.65820
H         84.37987       73.15467       39.93386
H         82.23920       71.74949       41.64473
H         83.74176       70.22850       40.27699
H         83.34740       71.17905       38.80035
H         81.98648       73.35255       38.99617
H         80.64858       72.46150       39.81999
H         81.36376       73.86996       40.60746
H         80.94487       70.44233       38.99756
H         82.06846       69.05667       38.94552
H         81.35996       69.56234       40.52608
N         83.71533       75.36271       41.11689
C         83.49981       76.62065       41.81983
C         82.16533       77.21548       41.42850
O         81.46496       76.65473       40.60132
C         84.64360       77.62709       41.49544
C         86.02756       77.08892       41.85929
O         84.60811       78.02609       40.14672
H         83.83637       75.39638       40.09845
H         83.47717       76.45225       42.91866
H         84.50267       78.54548       42.10158
H         85.00969       77.30944       39.59404
H         86.80016       77.85107       41.61884
H         86.08037       76.84699       42.94025
H         86.23522       76.17763       41.26792
N         81.76089       78.38330       41.98746
C         80.57470       79.11862       41.56197
C         80.71697       79.53672       40.10376
O         79.77072       79.40863       39.34079
C         80.38514       80.38577       42.43741
C         80.08353       80.02111       43.89754
O         81.53320       81.19571       42.37598
H         82.36169       78.79595       42.71625
H         79.66104       78.49279       41.67952
H         79.50919       80.94644       42.03481
H         81.27763       82.09117       42.71865
H         79.16265       79.40319       43.95393
H         80.92083       79.45853       44.35977
H         79.92086       80.94647       44.48902
N         81.89831       80.05513       39.66774
C         82.13795       80.58952       38.32887
C         81.86925       79.53569       37.26837
O         81.07223       79.77199       36.37150
C         83.59227       81.12140       38.20283
C         83.92667       82.18545       39.27140
C         85.32564       82.78027       39.09158
C         85.65570       83.70988       40.27145
N         86.95614       84.35188       40.09549
H         82.66900       80.06311       40.34539
H         81.45601       81.45270       38.16140
H         83.71119       81.57192       37.19282
H         84.31911       80.28439       38.29748
H         83.89909       81.73462       40.28204
H         83.17715       83.00516       39.23377
H         85.35946       83.34353       38.13415
H         86.08376       81.96677       39.05882
H         85.66673       83.11334       41.21271
H         84.87288       84.49450       40.36751
H         86.93493       84.96694       39.25011
H         87.16089       84.93959       40.93608
H         87.70695       83.63124       39.99378
N         82.48259       78.32525       37.34784
C         82.25919       77.21442       36.42248
C         80.78698       76.86025       36.38935
O         80.20135       76.84157       35.31550
C         83.11397       75.99951       36.85817
C         84.60637       76.32838       36.69246
C         85.52639       75.30435       37.27200
O         86.51634       74.82622       36.51742
O         85.50624       75.04134       38.46024
H         83.10986       78.17873       38.14898
H         82.57243       77.50171       35.39272
H         82.87593       75.10911       36.23931
H         82.88248       75.75661       37.91813
H         84.86020       77.27600       37.20400
H         84.83347       76.46666       35.61222
N         80.11099       76.62316       37.54229
C         78.69245       76.35400       37.57438
H         78.13842       77.19836       37.11048
H         78.47166       75.41361       37.02926
H         78.35515       76.25123       38.62813
H         80.61471       76.67584       38.43184
Ca        88.29992       74.00004       37.57262
O         88.52157       75.05303       41.01194
H         87.73620       74.45025       41.02558
H         88.54854       75.46019       41.91427
O         88.26639       77.02123       38.80363
H         89.16176       77.05216       39.22553
H         88.44945       77.06527       37.83201

Ca 1.0



