%chk=holoCaM-CaMKII.loop4.water1.frame440.chk
%nprocshared=20
%mem=10GB
%nosave
#b3lyp/svp scf=(tight,noincore,xqc) Test 
#IOP(5/87=12) Density=Current Pop=(MK,readradii) iop(6/33=2) iop(6/42=6)

holoCaM-CaMKII.loop4.water1.frame440 

   -3  1 
C         63.51591       76.34238       22.60858
C         62.27143       76.93634       23.20102
O         61.27532       77.05420       22.50374
H         64.33920       76.30041       23.35440
H         63.30711       75.30981       22.26113
H         63.85332       76.96244       21.75279
N         62.25981       77.32924       24.50138
C         61.09949       77.91259       25.16134
C         60.74209       79.24785       24.52327
O         61.62588       80.07681       24.35392
C         61.42834       78.10920       26.64912
C         60.25850       78.51515       27.48529
O         60.46862       78.75321       28.78373
O         59.13104       78.60401       27.02722
H         63.12093       77.19213       25.05455
H         60.24910       77.19537       25.09906
H         62.23093       78.87113       26.75345
H         61.79579       77.14995       27.07490
N         59.45307       79.53470       24.18393
C         59.04615       80.76958       23.52045
C         58.33810       81.68619       24.51772
O         58.85073       82.76919       24.76543
C         58.19749       80.43427       22.25319
C         58.91072       79.42945       21.30343
C         57.77436       81.70074       21.49167
C         60.25914       79.90002       20.74867
H         58.72833       78.84824       24.42064
H         59.94640       81.32692       23.18139
H         57.26088       79.93455       22.57603
H         58.23946       79.20065       20.44658
H         59.07617       78.47302       21.84251
H         58.65530       82.27762       21.14455
H         57.15513       81.42434       20.61029
H         57.15779       82.35601       22.14115
H         60.67787       79.11191       20.08767
H         60.14606       80.82576       20.14963
H         60.98819       80.07404       21.56536
N         57.17408       81.33369       25.14014
C         56.49972       82.20330       26.11498
C         57.28919       82.41064       27.41089
O         56.85684       83.21651       28.22325
C         55.08172       81.67644       26.43738
C         55.05743       80.30570       27.05689
O         53.98724       79.74593       27.21917
O         56.20140       79.66542       27.36720
H         56.73663       80.44090       24.88182
H         56.36264       83.19744       25.63422
H         54.52054       81.62405       25.47804
H         54.54410       82.38513       27.10395
N         58.44330       81.73439       27.67994
C         59.24383       81.95950       28.87201
C         58.53009       81.59163       30.15564
O         58.37708       82.45861       31.00427
H         58.80626       81.05597       27.00070
H         59.55534       83.02657       28.89721
H         60.16781       81.34746       28.80958
N         58.10164       80.31492       30.38292
C         57.47312       79.88508       31.63687
C         58.26122       78.79411       32.37132
O         57.85400       78.43182       33.46588
C         56.00801       79.44908       31.38981
C         55.79901       78.29032       30.44672
O         54.54896       77.84999       30.21307
O         56.73165       77.74900       29.88232
H         58.23417       79.62662       29.63000
H         57.42853       80.74126       32.34443
H         55.44808       80.31654       30.98166
H         55.55213       79.17820       32.36676
N         59.38263       78.22397       31.84511
C         60.16707       77.18924       32.50181
C         60.09520       75.86158       31.77234
O         60.78900       74.94428       32.19242
H         59.71020       78.51791       30.92700
H         59.82640       77.01270       33.54438
H         61.22314       77.53316       32.54685
N         59.23723       75.65050       30.72935
C         59.03574       74.34608       30.11016
C         58.93457       74.43008       28.59781
O         58.89760       75.52108       28.04047
C         57.81331       73.65214       30.77174
C         56.47202       74.42433       30.79562
C         55.71959       74.47501       29.48470
N         54.48223       73.93282       29.38503
O         56.20300       75.03222       28.51506
H         58.61088       76.40870       30.44162
H         59.91711       73.69915       30.31967
H         58.09865       73.52339       31.83954
H         57.65482       72.63356       30.35789
H         56.62619       75.44994       31.18711
H         55.82318       73.90586       31.53363
H         54.03465       73.47380       30.19157
H         53.95930       73.98143       28.49870
N         58.91493       73.28092       27.86766
C         58.78038       73.21821       26.41644
C         57.65172       72.25435       26.08367
O         57.71177       71.10959       26.51601
C         60.11607       72.73904       25.77960
C         60.00055       72.60242       24.24977
C         61.25509       73.72236       26.09927
H         59.02945       72.38662       28.37201
H         58.55665       74.22331       25.99105
H         60.38317       71.74279       26.19706
H         60.96024       72.24113       23.82295
H         59.21726       71.86772       23.97049
H         59.75781       73.58071       23.78575
H         61.40955       73.80922       27.19447
H         62.20745       73.36770       25.65059
H         61.02672       74.73080       25.69044
N         56.61934       72.62872       25.27693
C         55.54803       71.72148       24.86904
C         55.69916       71.36693       23.39501
O         56.66077       71.80174       22.77836
C         54.17775       72.32682       25.24026
C         53.86010       73.59926       24.49744
N         53.69934       74.76478       25.15683
O         53.72892       73.57593       23.28717
H         56.61731       73.58231       24.88763
H         55.62455       70.75865       25.41982
H         54.17866       72.51576       26.33626
H         53.36653       71.59599       25.03907
H         53.80659       74.80443       26.17828
H         53.47236       75.62681       24.63882
N         54.81770       70.52974       22.77648
C         54.99602       70.04885       21.40548
C         55.04609       71.16921       20.38156
O         55.85981       71.09465       19.47188
C         53.89063       69.04980       21.01823
C         54.18097       68.43481       19.66726
C         55.34508       67.66753       19.47694
C         53.30968       68.63651       18.58514
C         55.63608       67.12036       18.22666
C         53.60259       68.08505       17.33337
C         54.76885       67.32632       17.15065
O         55.06667       66.79240       15.94940
H         54.01608       70.17577       23.32037
H         55.96737       69.50899       21.37534
H         52.91147       69.57904       21.01781
H         53.83921       68.23351       21.77028
H         56.03359       67.49558       20.29459
H         52.41022       69.22711       18.70621
H         56.53945       66.53783       18.09546
H         52.92521       68.25163       16.50582
H         54.49482       66.91031       15.17798
N         54.22357       72.24733       20.47964
C         54.30879       73.40129       19.58836
C         55.73615       73.93589       19.59178
O         56.32487       74.12798       18.53740
C         53.33773       74.50979       20.08878
C         53.17660       75.69689       19.12528
C         52.41347       75.29974       17.89357
O         52.91512       75.42030       16.78828
O         51.15537       74.82912       18.00695
H         53.54770       72.26629       21.25533
H         54.01258       73.09332       18.56176
H         53.70668       74.90187       21.06020
H         52.32846       74.08261       20.27529
H         54.16975       76.12346       18.86511
H         52.58854       76.49235       19.63284
N         56.33757       74.19565       20.78404
C         57.64249       74.83105       20.93589
C         58.80872       73.88089       20.67544
O         59.94179       74.34221       20.65820
C         57.74933       75.42384       22.36202
C         56.55945       76.36251       22.64606
C         56.56501       76.93414       24.01913
O         56.47850       78.13937       24.15076
O         56.56213       76.15886       25.12004
H         55.79219       73.98585       21.63007
H         57.69754       75.68076       20.21872
H         58.70522       75.98146       22.47133
H         57.73992       74.59557       23.10043
H         55.59317       75.83437       22.57172
H         56.55491       77.18398       21.89584
N         58.62269       72.54337       20.49720
C         59.71189       71.61846       20.27187
H         60.42548       71.65242       21.12201
H         59.31369       70.58289       20.19047
H         60.23684       71.87018       19.32710
H         57.68131       72.14998       20.54493
Ca        56.39646       77.47521       26.92832
O         53.43844       77.05977       27.25652
H         52.56719       76.60366       27.36264
H         53.45128       77.35522       26.31077

Ca 1.0



