%chk=holoCaM-CaMKII.loop3.water1.frame404.chk
%nprocshared=20
%mem=10GB
%nosave
#b3lyp/svp scf=(tight,noincore,xqc) Test 
#IOP(5/87=12) Density=Current Pop=(MK,readradii) iop(6/33=2) iop(6/42=6)

holoCaM-CaMKII.loop3.water1.frame404 

   0  1 
C         34.41831       73.63752       57.24651
C         33.26169       74.27930       57.95059
O         32.33133       73.57434       58.31702
H         35.34827       73.80296       57.82828
H         34.25333       72.54277       57.14127
H         34.53033       74.07757       56.23395
N         33.24845       75.62773       58.16542
C         32.15003       76.31102       58.83475
C         31.47598       77.27189       57.87190
O         32.14072       78.13375       57.31303
C         32.63878       77.05149       60.10000
C         31.47017       77.53322       60.93072
O         31.64871       78.11490       62.12769
O         30.32352       77.30338       60.57697
H         34.04461       76.19163       57.82963
H         31.40607       75.55858       59.17903
H         33.31069       77.89530       59.83245
H         33.20925       76.33512       60.73057
N         30.13517       77.17365       57.64327
C         29.41038       78.00498       56.68426
C         29.43939       79.49986       56.99096
O         29.01648       80.26912       56.13899
C         27.93092       77.54252       56.61809
C         27.13596       77.91667       57.89762
C         25.68831       77.40307       57.88837
C         25.54904       75.87810       58.05184
N         26.00341       75.42517       59.36772
H         29.61635       76.43514       58.14327
H         29.88855       77.83442       55.69461
H         27.92251       76.44540       56.44952
H         27.42906       78.02129       55.74935
H         27.07921       79.02470       57.95196
H         27.65474       77.57966       58.81731
H         25.20462       77.72253       56.94030
H         25.13502       77.88455       58.72476
H         26.09496       75.33567       57.25266
H         24.47048       75.62554       57.95306
H         25.81156       74.40242       59.46476
H         27.02981       75.57444       59.48827
H         25.47538       75.93571       60.11238
N         29.80189       79.96955       58.21839
C         29.65838       81.36394       58.62258
C         30.96303       81.98559       59.08437
O         31.13861       83.17636       58.86073
C         28.56192       81.48658       59.70472
C         28.75953       80.58429       60.89289
O         29.74206       80.69561       61.60197
O         27.83730       79.64728       61.18362
H         30.09641       79.29701       58.93560
H         29.29725       81.99091       57.77626
H         27.59035       81.21587       59.23833
H         28.48817       82.54194       60.04802
N         31.91549       81.27506       59.75310
C         33.11424       81.89872       60.27619
C         32.75623       82.82965       61.40464
O         33.02356       84.01917       61.30700
H         31.79827       80.26656       59.91370
H         33.65129       82.42887       59.45794
H         33.79420       81.12178       60.68644
N         32.16043       82.33047       62.52725
C         31.81649       83.14534       63.68692
C         32.65560       82.78215       64.90486
O         32.52569       83.47025       65.90769
C         30.30095       83.06714       63.99791
C         29.78669       81.72302       64.47094
N         28.48371       81.58813       64.80669
O         30.53151       80.75992       64.56846
H         31.97593       81.31773       62.56572
H         32.04078       84.21193       63.46620
H         29.73183       83.36956       63.09169
H         30.07464       83.80264       64.80030
H         27.83592       82.38663       64.74057
H         28.12394       80.68552       65.14647
N         33.54433       81.74060       64.89884
C         34.41952       81.44272       66.02155
C         34.18764       80.08228       66.64413
O         34.91270       79.77136       67.57931
H         33.64781       81.14717       64.06406
H         34.30693       82.19444       66.82989
H         35.46918       81.49621       65.66022
N         33.23009       79.21005       66.20867
C         33.03727       77.90082       66.83884
C         32.08645       77.00726       66.06397
O         31.33682       77.50312       65.24123
C         32.47624       78.03188       68.28085
C         31.06521       78.60099       68.29132
C         29.97475       77.76316       68.59023
C         30.81843       79.95199       67.98370
C         28.66841       78.26083       68.56871
C         29.51067       80.44982       67.97369
C         28.43201       79.60726       68.26028
O         27.17686       80.10012       68.23474
H         32.65930       79.46892       65.39241
H         34.02718       77.39276       66.84140
H         33.13046       78.63829       68.93975
H         32.46052       77.00849       68.71547
H         30.13184       76.71701       68.82104
H         31.63245       80.62592       67.75580
H         27.84094       77.59750       68.78811
H         29.33467       81.49216       67.73787
H         26.40308       79.54900       68.42127
N         32.05338       75.66379       66.30131
C         31.09467       74.76300       65.66273
C         30.39969       73.87828       66.68837
O         30.80182       73.83946       67.84419
C         31.75981       73.93600       64.52304
C         32.98688       73.13622       65.03276
C         32.12389       74.87428       63.35727
C         33.64069       72.26167       63.96130
H         32.74670       75.26463       66.95339
H         30.28018       75.36254       65.20567
H         31.00601       73.22002       64.12627
H         32.66178       72.46995       65.86031
H         33.76217       73.82887       65.42452
H         32.89229       75.61538       63.66085
H         32.49437       74.30771       62.48030
H         31.21624       75.41570       63.01604
H         34.06537       72.87759       63.14231
H         34.48060       71.69373       64.41379
H         32.90474       71.54347       63.54359
N         29.28652       73.18320       66.32086
C         28.49115       72.35719       67.22282
C         28.24348       70.97870       66.61948
O         28.71591       70.70228       65.52532
C         27.16096       73.08497       67.49201
O         26.45425       73.27406       66.29708
H         28.93717       73.30463       65.35916
H         29.00310       72.22891       68.20192
H         27.39837       74.07174       67.95247
H         26.53251       72.51106       68.20550
H         25.75111       73.94692       66.49007
N         27.47010       70.06875       67.27926
C         27.08946       68.77166       66.72405
C         26.31420       68.94911       65.43498
O         26.64359       68.30492       64.44974
C         26.21774       67.99942       67.72103
H         27.10446       70.32402       68.20927
H         27.99851       68.15777       66.53428
H         26.77962       67.82826       68.66294
H         25.28691       68.55970       67.95452
H         25.93997       67.01028       67.29565
N         25.27391       69.82781       65.37401
C         24.49490       70.06778       64.16639
C         25.37697       70.51907       63.01814
O         25.33317       69.89107       61.96874
C         23.41161       71.12184       64.43284
H         25.03764       70.36118       66.22535
H         23.97576       69.12655       63.87611
H         22.80027       71.28401       63.51892
H         22.73690       70.77454       65.24424
H         23.86273       72.09047       64.73775
N         26.19825       71.60408       63.13612
C         26.99224       72.09861       62.01265
C         28.03803       71.09609       61.53324
O         28.56780       71.29135       60.44797
C         27.68925       73.43982       62.33319
C         26.69882       74.54321       62.74640
C         27.38998       75.87282       62.80408
O         28.38978       76.09137       63.67341
O         27.07750       76.75666       62.02339
H         26.21937       72.10455       64.03426
H         26.28281       72.27832       61.17359
H         28.21472       73.77138       61.40889
H         28.45380       73.30048       63.12619
H         26.23591       74.32850       63.73022
H         25.89144       74.59364       61.98968
N         28.40130       70.01865       62.28552
C         29.36333       69.02281       61.85949
H         30.22360       69.01651       62.56099
H         28.88134       68.02228       61.87749
H         29.74187       69.20813       60.83292
H         27.99617       69.89374       63.21785
Ca        29.69623       77.86888       63.21980
O         26.93031       78.50133       64.47836
H         27.01449       78.05989       65.36066
H         26.19186       79.15041       64.58910

Ca 1.0



