%chk=holoCaM-CaMKII.loop4.water2.frame61.chk
%nprocshared=20
%mem=10GB
%nosave
#b3lyp/svp scf=(tight,noincore,xqc) Test 
#IOP(5/87=12) Density=Current Pop=(MK,readradii) iop(6/33=2) iop(6/42=6)

holoCaM-CaMKII.loop4.water2.frame61 

   -3  1 
C         86.24982       38.37649       67.62238
C         87.40673       37.70034       66.94608
O         88.13117       38.33775       66.19895
H         85.30471       37.86345       67.34278
H         86.37774       38.31369       68.72430
H         86.18060       39.44411       67.32803
N         87.63731       36.38531       67.18839
C         88.73053       35.61180       66.60687
C         88.61032       35.52166       65.07924
O         87.55718       35.15866       64.57595
C         88.73569       34.22754       67.27834
C         89.81835       33.33520       66.77846
O         89.48788       32.13019       66.29238
O         90.98907       33.67354       66.83686
H         86.99938       35.91411       67.85086
H         89.69769       36.09458       66.87606
H         87.75617       33.72450       67.12554
H         88.88956       34.36762       68.37181
N         89.68705       35.83181       64.29381
C         89.70020       35.87939       62.82457
C         90.57759       34.78181       62.20511
O         90.43087       34.54165       61.01427
C         90.19530       37.30840       62.38702
C         89.15037       38.37483       62.79715
C         90.54242       37.42737       60.88734
C         89.63022       39.82047       62.63444
H         90.55473       36.07014       64.78017
H         88.67515       35.69191       62.43525
H         91.14261       37.51235       62.93119
H         88.90937       38.24833       63.86765
H         88.21673       38.22596       62.21244
H         90.93959       38.43219       60.64415
H         91.37137       36.74024       60.61926
H         89.65781       37.21574       60.25348
H         88.83694       40.51129       62.98909
H         90.54264       39.99283       63.24304
H         89.83915       40.07487       61.57697
N         91.51532       34.09432       62.91315
C         92.40550       33.08759       62.32154
C         92.22060       31.70771       62.96645
O         92.93954       30.78841       62.60037
C         93.86950       33.59960       62.35085
C         94.24135       34.17584       63.68068
O         94.58885       35.34150       63.77803
O         94.06342       33.43764       64.77828
H         91.64021       34.30752       63.91219
H         92.17952       32.92135       61.24522
H         93.97668       34.40977       61.59553
H         94.56577       32.78250       62.06274
N         91.20273       31.46028       63.83876
C         90.84388       30.13450       64.32462
C         91.81641       29.51964       65.30807
O         92.21289       28.38188       65.10158
H         90.56335       32.22529       64.08726
H         90.66644       29.45504       63.46221
H         89.87520       30.21040       64.85841
N         92.18914       30.18785       66.43747
C         92.95888       29.58220       67.52971
C         92.27148       29.75777       68.88808
O         92.85476       29.36830       69.89033
C         94.41168       30.09782       67.52943
C         94.60404       31.57169       67.69908
O         93.57315       32.40287       67.91015
O         95.72034       32.03923       67.54202
H         91.89763       31.17006       66.53117
H         93.05771       28.48630       67.36731
H         94.84355       29.82744       66.54021
H         95.00218       29.57233       68.30994
N         91.01492       30.28360       69.00036
C         90.29827       30.41575       70.26115
C         90.75509       31.56509       71.14141
O         90.10683       31.78137       72.15666
H         90.48719       30.52957       68.15313
H         90.31785       29.45226       70.81530
H         89.23511       30.63607       70.01954
N         91.81455       32.36544       70.82839
C         92.18454       33.55049       71.59723
C         92.15530       34.79370       70.72722
O         91.93882       34.71035       69.52430
C         93.57580       33.36710       72.24170
C         93.49407       32.45925       73.47673
C         94.83590       32.31774       74.14500
N         95.84939       31.66941       73.52790
O         95.00634       32.78313       75.26247
H         92.37716       32.15310       69.99754
H         91.44434       33.74831       72.40444
H         93.95736       34.34425       72.60857
H         94.29661       32.98632       71.48503
H         93.10136       31.45435       73.21712
H         92.78928       32.93520       74.19645
H         95.71591       31.25260       72.59548
H         96.76381       31.56789       73.99277
N         92.31635       36.00837       71.32104
C         92.24343       37.29018       70.63636
C         93.54201       38.03703       70.89674
O         93.91882       38.16663       72.05535
C         91.02582       38.09282       71.17961
C         90.83785       39.40936       70.40855
C         89.72514       37.27513       71.08441
H         92.45175       36.03501       72.34480
H         92.09085       37.14958       69.54260
H         91.19578       38.32915       72.25393
H         89.98641       39.98434       70.83051
H         91.74233       40.04551       70.47671
H         90.62095       39.20206       69.33898
H         89.50575       36.99874       70.03062
H         89.79748       36.34710       71.68994
H         88.87297       37.86348       71.48713
N         94.25923       38.59353       69.88049
C         95.50024       39.33115       70.09231
C         95.22227       40.82558       70.06693
O         94.06800       41.20905       69.95512
C         96.57762       38.84986       69.08947
C         96.38090       39.33643       67.67256
N         96.12173       38.48018       66.66224
O         96.49870       40.52390       67.42735
H         93.87960       38.55715       68.92780
H         95.90086       39.10639       71.10519
H         96.60359       37.73809       69.12329
H         97.57978       39.20354       69.41297
H         95.99971       37.47859       66.84181
H         96.02824       38.82754       65.69573
N         96.22716       41.73316       70.19782
C         96.00155       43.17737       70.25833
C         95.24536       43.68951       69.04012
O         94.21273       44.32132       69.20780
C         97.35268       43.90908       70.38976
C         97.18197       45.40452       70.50043
C         96.49844       45.96599       71.59238
C         97.70633       46.25056       69.50954
C         96.34332       47.35132       71.69062
C         97.54897       47.63529       69.60929
C         96.86739       48.19057       70.70198
O         96.71168       49.52496       70.81247
H         97.19298       41.37845       70.27617
H         95.39459       43.39592       71.16502
H         97.98037       43.65797       69.50634
H         97.88910       43.54591       71.29297
H         96.08817       45.33307       72.36920
H         98.23367       45.83962       68.65732
H         95.81612       47.77231       72.53746
H         97.95754       48.27449       68.83704
H         97.06310       50.13954       70.15259
N         95.71166       43.45553       67.78529
C         95.03774       43.90691       66.57036
C         93.61533       43.37157       66.48602
O         92.70964       44.16407       66.26486
C         95.83926       43.49629       65.31355
C         97.20852       44.20753       65.25772
C         98.00307       43.89013       64.01944
O         97.57832       43.12376       63.16870
O         99.20714       44.46808       63.84664
H         96.58691       42.92329       67.69866
H         94.98140       45.01895       66.56831
H         95.26270       43.80128       64.41157
H         95.97312       42.39180       65.28616
H         97.82725       43.92800       66.13469
H         97.04260       45.30625       65.28269
N         93.33653       42.04751       66.66234
C         91.97931       41.50216       66.54172
C         91.01501       42.13901       67.53582
O         89.81918       42.13542       67.27818
C         91.95620       39.96519       66.71733
C         92.84649       39.25383       65.68620
C         92.87420       37.76583       65.86980
O         92.64264       37.03790       64.92435
O         93.22922       37.21992       67.04541
H         94.12074       41.42191       66.88697
H         91.61619       41.73815       65.51626
H         90.91298       39.59151       66.61154
H         92.31046       39.72414       67.74071
H         93.88409       39.60382       65.78620
H         92.50211       39.49781       64.65877
N         91.45970       42.70302       68.69191
C         90.58454       43.36404       69.63310
H         89.80713       42.66139       69.99780
H         91.17557       43.72602       70.50270
H         90.10565       44.24009       69.14679
H         92.45634       42.66485       68.92036
Ca        93.91679       34.30386       66.83430
O         95.38529       34.97484       69.73641
H         95.98100       34.78346       70.50336
H         95.44958       34.16543       69.17158
O         96.75698       34.97201       66.58054
H         97.31390       35.61519       67.08684
H         96.48964       35.45879       65.76046

Ca 1.0



