%chk=holoCaM-CaMKII.loop4.water2.frame72.chk
%nprocshared=20
%mem=10GB
%nosave
#b3lyp/svp scf=(tight,noincore,xqc) Test 
#IOP(5/87=12) Density=Current Pop=(MK,readradii) iop(6/33=2) iop(6/42=6)

holoCaM-CaMKII.loop4.water2.frame72 

   -3  1 
C         82.11152       47.31593       69.21188
C         83.59479       47.35347       68.98096
O         84.12682       48.39289       68.62741
H         81.64805       48.30267       69.00332
H         81.64950       46.55359       68.54889
H         81.90800       47.04096       70.26908
N         84.32767       46.22912       69.18391
C         85.77681       46.14350       69.02117
C         86.20582       46.39555       67.57368
O         85.72300       45.70607       66.68639
C         86.22345       44.74444       69.48927
C         87.69464       44.53798       69.36876
O         88.47149       45.27603       69.94971
O         88.15784       43.51797       68.62636
H         83.81657       45.38945       69.50257
H         86.26008       46.88904       69.69244
H         85.70202       43.96273       68.89387
H         85.94153       44.61322       70.55734
N         87.14195       47.35376       67.27866
C         87.61555       47.65738       65.92115
C         89.11264       47.33466       65.73429
O         89.53813       47.32815       64.58754
C         87.28102       49.15869       65.57698
C         85.74436       49.37440       65.57696
C         87.89294       49.63896       64.24258
C         85.31162       50.83685       65.41671
H         87.53312       47.90026       68.05748
H         87.08682       47.00616       65.19045
H         87.71977       49.79897       66.36588
H         85.33486       49.03409       66.54569
H         85.27811       48.76684       64.77094
H         87.67228       50.70737       64.05497
H         88.99969       49.60443       64.27634
H         87.51963       49.03205       63.39192
H         85.59960       51.25008       64.42964
H         84.20542       50.90293       65.48381
H         85.75252       51.46094       66.22295
N         89.97153       47.04295       66.76189
C         91.40566       46.77555       66.54689
C         91.82734       45.37082       66.97007
O         93.00889       45.06274       66.89413
C         92.26758       47.86799       67.21388
C         92.21861       47.91978       68.71417
O         92.80648       48.81944       69.29129
O         91.50028       47.03572       69.43096
H         89.61677       47.03506       67.72692
H         91.65278       46.84565       65.46541
H         91.92576       48.85123       66.81924
H         93.32935       47.73724       66.91145
N         90.90975       44.44198       67.34902
C         91.23179       43.05739       67.64994
C         91.93238       42.85981       68.97369
O         92.94499       42.17605       69.01232
H         89.91366       44.69366       67.33831
H         91.80027       42.60147       66.80979
H         90.27900       42.49622       67.73268
N         91.39683       43.37662       70.11504
C         91.86211       43.05170       71.46271
C         90.71913       42.53573       72.34857
O         90.96544       42.26951       73.51736
C         92.59461       44.25231       72.10209
C         91.79361       45.50773       72.30862
O         92.38625       46.57230       72.88061
O         90.62751       45.58639       71.96607
H         90.59575       44.01204       70.01938
H         92.62240       42.24028       71.41834
H         93.46747       44.50642       71.46341
H         92.98630       43.93200       73.09273
N         89.45673       42.32671       71.86278
C         88.36365       41.79156       72.65901
C         87.74885       42.76366       73.65258
O         86.80416       42.35710       74.31060
H         89.26001       42.46884       70.86383
H         88.69648       40.86302       73.17220
H         87.53808       41.50930       71.96816
N         88.18144       44.05318       73.79997
C         87.53121       45.01537       74.69422
C         87.01011       46.20801       73.90137
O         87.22450       46.27285       72.70121
C         88.50704       45.49229       75.78634
C         89.05886       44.33711       76.63169
C         89.84873       44.87477       77.79832
N         91.16998       44.61637       77.92828
O         89.28205       45.55371       78.64252
H         88.98004       44.38258       73.25102
H         86.65700       44.54890       75.19714
H         87.96017       46.18808       76.45828
H         89.35847       46.04336       75.33143
H         89.69468       43.68924       75.98935
H         88.22565       43.72082       77.03305
H         91.67230       44.05242       77.22819
H         91.69514       44.99127       78.73260
N         86.28617       47.18806       74.52884
C         85.73312       48.34622       73.83231
C         86.28487       49.62590       74.45616
O         86.00611       49.91049       75.61094
C         84.18074       48.29305       73.88575
C         83.54224       49.51210       73.20597
C         83.65971       47.01427       73.20714
H         86.09055       47.09815       75.53544
H         86.02591       48.32451       72.75972
H         83.85339       48.28155       74.94933
H         83.84394       49.57083       72.13825
H         82.43462       49.44639       73.26307
H         83.84191       50.44537       73.72263
H         84.05757       46.10793       73.70941
H         82.55130       46.97107       73.26602
H         83.96072       46.98897       72.13734
N         87.10276       50.43517       73.72286
C         87.68438       51.69066       74.20740
C         86.60139       52.77698       74.24008
O         85.48666       52.50227       73.82477
C         88.81660       52.09154       73.21691
C         89.84952       53.09581       73.67333
N         90.78756       53.52369       72.79620
O         89.88511       53.49231       74.82665
H         87.35154       50.11522       72.78033
H         88.13589       51.50080       75.20568
H         88.34398       52.44420       72.27811
H         89.40968       51.18586       72.97741
H         90.78765       53.18811       71.82134
H         91.51214       54.19644       73.08718
N         86.84933       54.04551       74.67336
C         85.88334       55.13211       74.53099
C         85.64569       55.42303       73.05569
O         84.50535       55.37500       72.61557
C         86.39722       56.40424       75.24534
C         85.47173       57.58782       75.06060
C         84.13225       57.52979       75.48353
C         85.94643       58.76425       74.45418
C         83.28372       58.62541       75.29614
C         85.09788       59.86002       74.27367
C         83.76187       59.79321       74.69290
O         82.93143       60.84166       74.52235
H         87.75575       54.26471       75.09520
H         84.92686       54.83676       75.01635
H         87.40937       56.65854       74.86046
H         86.49964       56.19088       76.33107
H         83.74069       56.63695       75.95306
H         86.97412       58.83629       74.12003
H         82.25248       58.56611       75.62063
H         85.47994       60.75922       73.80672
H         83.22376       61.66818       74.11205
N         86.69208       55.74239       72.23805
C         86.54774       56.09214       70.82267
C         85.99026       54.97381       69.94169
O         85.80416       55.22468       68.75853
C         87.89078       56.61007       70.25050
C         89.01016       55.55468       70.20428
C         90.28412       56.15840       69.68537
O         90.33007       56.63120       68.56062
O         91.38513       56.17921       70.46097
H         87.62793       55.78858       72.66590
H         85.83467       56.94413       70.76302
H         88.22459       57.46908       70.87368
H         87.71850       56.99287       69.21953
H         88.71864       54.70958       69.54541
H         89.19907       55.15552       71.22000
N         85.66648       53.74198       70.43022
C         85.08338       52.68403       69.61712
C         83.62217       52.54775       69.99214
O         82.77257       52.71353       69.12750
C         85.88708       51.37875       69.79123
C         87.35618       51.61437       69.40691
C         88.18953       50.37615       69.48863
O         88.82049       50.01291       68.51076
O         88.30926       49.68017       70.63194
H         85.80581       53.53085       71.42412
H         85.11806       52.94776       68.53587
H         85.45041       50.59468       69.13672
H         85.83422       51.02797       70.84618
H         87.80312       52.36604       70.08474
H         87.40616       52.01206       68.36943
N         83.24793       52.32147       71.27925
C         81.86243       52.31374       71.69355
H         81.30793       51.50785       71.17093
H         81.79705       52.14900       72.79045
H         81.39855       53.29800       71.46400
H         83.96740       52.19175       71.99788
Ca        89.67741       47.93401       70.36272
O         89.58846       48.54881       73.81163
H         90.01194       47.67548       73.62292
H         90.14316       48.94393       74.53007
O         91.42355       50.30500       71.69130
H         91.26520       50.59040       70.75631
H         91.78539       49.38666       71.62072

Ca 1.0



