%chk=holoCaM.loop1.water2.frame428.chk
%nprocshared=20
%mem=10GB
%nosave
#b3lyp/svp scf=(tight,noincore,xqc) Test 
#IOP(5/87=12) Density=Current Pop=(MK,readradii) iop(6/33=2) iop(6/42=6)

holoCaM.loop1.water2.frame428 

   0  1 
C         -6.74281      108.23447       38.33899
C         -6.97473      109.70900       38.18700
O         -8.02120      110.10035       37.69690
H         -5.74977      108.02541       38.79168
H         -7.52874      107.79224       38.98353
H         -6.77209      107.75463       37.33790
N         -6.02526      110.59650       38.57939
C         -6.14705      112.03495       38.38072
C         -6.19680      112.33602       36.88872
O         -5.32923      111.84844       36.17471
C         -4.92635      112.72426       39.01204
C         -4.97915      114.21376       38.93484
O         -3.91922      114.91544       39.35268
O         -5.95677      114.79536       38.49822
H         -5.16604      110.22780       39.01750
H         -7.05899      112.40815       38.89857
H         -4.00464      112.37878       38.49654
H         -4.85393      112.45086       40.08754
N         -7.16136      113.14168       36.34780
C         -7.28149      113.35954       34.90863
C         -6.89321      114.76816       34.46224
O         -6.79642      114.95700       33.25854
C         -8.72492      113.05804       34.43886
C         -9.29972      111.70120       34.88342
C         -8.50145      110.49434       34.37923
C         -9.19726      109.18179       34.77458
N         -8.40234      108.02459       34.36844
H         -7.83818      113.60009       36.97356
H         -6.58501      112.67814       34.37404
H         -8.77283      113.12606       33.32974
H         -9.39908      113.83993       34.85466
H        -10.33879      111.63625       34.49185
H         -9.35433      111.66740       35.99251
H         -7.48426      110.51723       34.82370
H         -8.41299      110.53726       33.27225
H        -10.19949      109.13214       34.29404
H         -9.35151      109.14271       35.87271
H         -8.89899      107.15065       34.65645
H         -8.27632      108.02051       33.33065
H         -7.46818      108.05074       34.83863
N         -6.68633      115.80653       35.33413
C         -6.33014      117.15767       34.87513
C         -5.07717      117.75110       35.53482
O         -4.60123      118.75565       35.02082
C         -7.54972      118.10252       34.95382
C         -8.14602      118.28864       36.32202
O         -7.64136      117.66058       37.39849
O         -9.12152      119.01010       36.45426
H         -6.85456      115.64791       36.33149
H         -6.07350      117.11140       33.79451
H         -8.34699      117.68995       34.29690
H         -7.26379      119.09886       34.55077
N         -4.47000      117.20916       36.63209
C         -3.17894      117.66058       37.15017
C         -3.21260      118.30412       38.53046
O         -2.14164      118.56126       39.06097
H         -4.89735      116.40415       37.09693
H         -2.69725      118.39119       36.46654
H         -2.51617      116.76857       37.18784
N         -4.37546      118.64950       39.15486
C         -4.42719      119.34752       40.45318
C         -4.05200      118.46291       41.66342
O         -4.11233      118.94953       42.78382
C         -5.81248      120.03142       40.63112
C         -6.94414      119.06411       40.49734
O         -6.99104      118.01522       41.31688
O         -7.75560      119.17281       39.59455
H         -5.25264      118.48688       38.64218
H         -3.70384      120.19238       40.43647
H         -5.92132      120.80534       39.83993
H         -5.86588      120.54267       41.61591
N         -3.62193      117.17912       41.51450
C         -3.21592      116.28580       42.59243
C         -4.35393      115.88822       43.50448
O         -4.16422      115.92296       44.70620
H         -3.52604      116.80754       40.57156
H         -2.37528      116.72690       43.17441
H         -2.83966      115.34591       42.13336
N         -5.53307      115.43389       42.98931
C         -6.69087      114.96260       43.77014
C         -7.85470      114.42298       42.85897
O         -7.48203      113.96742       41.58854
C         -7.33706      116.07372       44.67719
C         -6.69732      116.35482       46.04369
O         -7.51448      117.27011       43.96651
H         -5.56893      115.38935       41.96729
H         -6.35558      114.10305       44.39019
H         -8.34416      115.71576       44.97627
H         -6.62574      117.70689       43.89067
H         -5.73874      116.89111       45.98812
H         -7.36951      117.02741       46.61900
H         -6.58578      115.40768       46.61227
N         -8.62375      113.37777       43.55816
C         -9.69710      112.71340       42.78532
C        -11.07280      113.23447       43.19291
O        -11.47769      113.04932       44.33235
C         -9.53581      111.17641       42.97827
C         -8.20875      110.72919       42.29762
C        -10.73565      110.38825       42.42099
C         -7.84339      109.26199       42.51530
H         -8.91953      113.63447       44.52694
H         -9.58683      112.90764       41.69838
H         -9.48303      110.96857       44.07092
H         -7.36409      111.32857       42.70034
H         -8.26981      110.92089       41.20249
H        -10.84038      110.54642       41.33065
H        -10.62686      109.30448       42.62389
H        -11.67352      110.69385       42.92771
H         -6.87434      109.05232       42.01351
H         -7.73536      109.05183       43.59987
H         -8.59835      108.58211       42.07376
N        -11.84356      113.90364       42.28503
C        -13.18738      114.40736       42.57371
C        -14.21686      113.27765       42.57882
O        -13.87922      112.13711       42.29906
C        -13.61041      115.47419       41.51732
C        -12.69192      116.69227       41.53142
O        -13.60958      114.91143       40.23510
H        -11.43998      114.09085       41.35512
H        -13.18362      114.90964       43.56667
H        -14.63233      115.83927       41.75922
H        -14.05781      115.55965       39.63221
H        -11.67115      116.39743       41.22417
H        -13.06141      117.45011       40.80840
H        -12.67633      117.14967       42.54266
N        -15.52519      113.56392       42.83992
C        -16.63271      112.61535       42.70234
C        -16.71173      112.09861       41.27042
O        -16.84204      110.89938       41.07460
C        -17.97865      113.28757       43.08744
C        -18.01869      113.65826       44.57696
O        -18.19086      114.43533       42.30378
H        -15.75307      114.53316       43.10186
H        -16.48770      111.74892       43.38681
H        -18.79327      112.54951       42.89799
H        -19.14757      114.68142       42.39952
H        -19.00280      114.10856       44.82593
H        -17.88477      112.74866       45.19986
H        -17.22763      114.39079       44.83829
N        -16.60702      112.96342       40.22264
C        -16.60462      112.57320       38.81196
C        -15.48255      111.58339       38.52585
O        -15.75628      110.49331       38.04325
C        -16.46273      113.86242       37.96377
C        -16.38412      113.67723       36.44123
C        -16.35585      115.06870       35.77414
C        -16.25960      115.04070       34.24147
N        -14.95949      114.55772       33.77398
H        -16.48795      113.96318       40.44821
H        -17.57794      112.09655       38.55801
H        -15.54790      114.40633       38.27679
H        -17.33995      114.50561       38.19896
H        -17.27130      113.11406       36.08000
H        -15.46488      113.10602       36.19358
H        -15.51053      115.67257       36.17303
H        -17.30229      115.58950       36.03948
H        -16.39420      116.08344       33.87484
H        -17.07942      114.42144       33.81639
H        -14.93331      114.61756       32.73026
H        -14.19512      115.16007       34.15880
H        -14.80642      113.56411       34.05446
N        -14.19024      111.90730       38.80261
C        -13.04697      111.03754       38.52596
C        -13.04020      109.76903       39.37686
O        -12.21157      108.90753       39.11619
C        -11.73048      111.81001       38.77439
C        -11.57758      113.02016       37.83332
C        -10.36139      113.84766       38.14475
O         -9.53821      113.52736       39.16180
O        -10.12501      114.83990       37.47508
H        -14.01961      112.83219       39.20625
H        -13.08717      110.73835       37.45461
H        -10.85622      111.13888       38.61836
H        -11.72602      112.15528       39.83135
H        -12.45371      113.69388       37.91268
H        -11.51518      112.65591       36.78589
N        -13.90189      109.58963       40.41777
C        -13.93204      108.40589       41.25194
H        -14.94571      107.95435       41.20705
H        -13.19216      107.64216       40.93565
H        -13.71757      108.69340       42.30291
H        -14.56395      110.32962       40.65924
Ca        -7.35867      115.96046       40.54640
O        -10.56383      117.59446       38.99064
H        -11.44191      117.35670       38.59942
H        -10.53053      118.58272       38.94195
O         -9.89332      117.21718       42.72790
H        -10.26505      118.08774       42.44043
H         -9.32899      116.93220       41.96763

Ca 1.0



