%chk=holoCaM-CaMKII.loop2.water2.frame145.chk
%nprocshared=20
%mem=10GB
%nosave
#b3lyp/svp scf=(tight,noincore,xqc) Test 
#IOP(5/87=12) Density=Current Pop=(MK,readradii) iop(6/33=2) iop(6/42=6)

holoCaM-CaMKII.loop2.water2.frame145 

   -2  1 
C         95.31114        9.43248       54.06167
C         94.16358        9.09591       53.15412
O         93.71573        7.95819       53.14275
H         96.17042        9.79734       53.46148
H         95.00056       10.23152       54.76919
H         95.62978        8.54561       54.64936
N         93.61366       10.06904       52.37881
C         92.45091        9.85242       51.52765
C         92.74508        8.90388       50.38013
O         93.64023        9.17421       49.59183
C         91.93862       11.20100       50.98315
C         90.70488       11.06592       50.12619
O         90.73068       11.46633       48.97347
O         89.56891       10.50950       50.59906
H         94.00812       11.02060       52.44920
H         91.65620        9.43068       52.16135
H         92.74607       11.68798       50.39164
H         91.69203       11.86579       51.83600
N         91.96755        7.79700       50.20215
C         92.10113        6.87365       49.08364
C         90.84665        6.83391       48.20897
O         90.88594        6.14561       47.19830
C         92.39333        5.47127       49.62960
H         91.22458        7.61174       50.88506
H         92.94790        7.18071       48.43277
H         91.55143        5.12147       50.26745
H         92.53329        4.74669       48.79915
H         93.31908        5.48462       50.24273
N         89.69573        7.50354       48.53115
C         88.47026        7.42858       47.73796
C         87.97513        8.81467       47.32508
O         87.85897        9.04303       46.12848
C         87.41788        6.54598       48.45468
C         87.20771        6.79037       49.92691
O         86.73834        7.83318       50.33606
O         87.50341        5.81645       50.80903
H         89.64958        8.04842       49.40153
H         88.65670        6.88848       46.78156
H         87.78612        5.49929       48.37717
H         86.45036        6.59326       47.90900
N         87.68527        9.79321       48.23048
C         87.23096       11.12993       47.85624
C         85.92311       11.53773       48.51465
O         85.49482       12.65988       48.28369
H         87.83172        9.60597       49.22640
H         87.11172       11.22808       46.75622
H         88.00589       11.85871       48.17680
N         85.23844       10.70957       49.35734
C         84.00111       11.08475       50.04376
C         84.16036       12.22271       51.06381
O         83.15791       12.60355       51.65388
C         83.36732        9.84781       50.73062
C         84.19103        9.21467       51.82913
N         83.67555        8.18625       52.53724
O         85.31405        9.61848       52.08899
H         85.58547        9.75591       49.49239
H         83.27241       11.42052       49.27296
H         83.16154        9.07090       49.96244
H         82.39177       10.15333       51.16704
H         82.73199        7.82636       52.33457
H         84.21393        7.76024       53.30193
N         85.35529       12.83447       51.31409
C         85.49723       13.96014       52.22483
C         85.50243       13.59137       53.69661
O         85.66326       14.50183       54.49621
H         86.19614       12.55661       50.79558
H         84.71662       14.72156       52.00564
H         86.48228       14.43843       52.03340
N         85.37672       12.30446       54.14043
C         85.47245       11.93398       55.55167
C         86.58780       10.92709       55.78520
O         87.08671       10.32429       54.84548
C         84.13946       11.31919       56.04561
C         82.98785       12.31964       55.96910
O         83.80405       10.18753       55.28058
H         85.22164       11.55335       53.46336
H         85.70440       12.82972       56.16830
H         84.23245       11.03433       57.12072
H         84.30860        9.41841       55.65475
H         82.05895       11.84556       56.35279
H         83.21230       13.21013       56.59350
H         82.81247       12.64136       54.92099
N         87.00578       10.68581       57.05944
C         87.93428        9.62044       57.41648
C         87.17502        8.30457       57.37086
O         86.13977        8.20287       58.01398
C         88.52427        9.85978       58.84555
C         89.31367       11.19567       58.95831
C         89.41044        8.68263       59.30229
C         90.53975       11.31086       58.04602
H         86.60450       11.25852       57.81775
H         88.79165        9.59580       56.71069
H         87.68151        9.92454       59.56983
H         89.65827       11.31440       60.00895
H         88.64015       12.04988       58.73695
H         88.81239        7.75362       59.37363
H         90.24913        8.50247       58.59822
H         89.82140        8.87855       60.31546
H         90.23738       11.28499       56.98443
H         91.04508       12.28272       58.22633
H         91.27541       10.50473       58.24290
N         87.67438        7.23265       56.69204
C         87.04273        5.91301       56.72095
C         87.76813        5.02988       57.71803
O         88.75860        5.45614       58.27849
C         87.06824        5.26449       55.32449
C         86.32622        6.05926       54.29339
O         85.28043        5.50452       53.65163
O         86.68462        7.19003       54.00415
H         88.59153        7.32545       56.23695
H         85.99198        5.99515       57.07472
H         86.60338        4.25734       55.38142
H         88.11957        5.13964       54.98896
N         87.28567        3.79399       58.03724
C         87.92582        2.95012       59.04240
C         89.30785        2.48556       58.58285
O         90.24894        2.70953       59.33702
C         86.99751        1.78341       59.45807
C         87.50888        1.03099       60.66540
C         87.81694       -0.33719       60.57637
C         87.65389        1.68587       61.90338
C         88.26352       -1.03432       61.70402
C         88.10009        0.98503       63.02675
C         88.40420       -0.37418       62.92772
H         86.40885        3.47661       57.60147
H         88.04144        3.56689       59.96044
H         86.82686        1.08737       58.62253
H         86.00302        2.19815       59.73111
H         87.70899       -0.86561       59.63756
H         87.41246        2.73616       62.00585
H         88.49673       -2.08839       61.63042
H         88.20452        1.49570       63.97560
H         88.74534       -0.91600       63.80028
N         89.55127        1.87442       57.37541
C         90.87957        1.49246       56.89826
C         91.88250        2.62838       56.98667
O         92.99713        2.43813       57.44591
C         90.65273        1.16634       55.40959
C         89.24566        0.63457       55.41378
C         88.55095        1.61337       56.35146
H         91.22662        0.59136       57.45187
H         90.60942        2.10156       54.80348
H         91.42157        0.50540       54.95639
H         88.76979        0.54197       54.41369
H         89.26726       -0.36648       55.90041
H         88.31061        2.57103       55.84233
H         87.63204        1.12509       56.70569
N         91.50490        3.85398       56.53718
C         92.35657        5.03427       56.47047
C         92.86709        5.39671       57.85220
O         94.06921        5.55164       58.01782
C         91.56515        6.19826       55.81725
C         91.12180        5.81183       54.38391
C         90.31092        6.84158       53.66278
O         89.88616        6.57030       52.55254
O         90.05748        8.05799       54.17549
H         90.52772        3.94240       56.23142
H         93.22940        4.82928       55.81033
H         92.20594        7.10588       55.76729
H         90.67600        6.42967       56.43840
H         90.49458        4.90228       54.38830
H         92.02295        5.59228       53.77114
N         92.00866        5.48898       58.90350
C         92.41181        5.77674       60.26329
H         93.49961        5.97640       60.34949
H         91.85457        6.66359       60.63017
H         92.16041        4.90729       60.90822
H         91.01559        5.30351       58.74507
Ca        89.31003        9.49795       52.60748
O         88.14350       12.13642       52.48704
H         88.38232       12.45938       53.39083
H         88.56258       12.78574       51.86853
O         90.61376       11.12134       54.52974
H         91.34300       10.45379       54.58087
H         91.03181       11.92056       54.12462

Ca 1.0



