%chk=holoCaM.loop3.water2.frame34.chk
%nprocshared=20
%mem=10GB
%nosave
#b3lyp/svp scf=(tight,noincore,xqc) Test 
#IOP(5/87=12) Density=Current Pop=(MK,readradii) iop(6/33=2) iop(6/42=6)

holoCaM.loop3.water2.frame34 

   0  1 
C         88.95024       83.68441       24.06628
C         87.66155       84.44044       24.14312
O         86.82731       84.10256       24.97190
H         89.47626       83.76330       25.04125
H         88.74073       82.61881       23.84394
H         89.61193       84.09574       23.27538
N         87.44122       85.51160       23.33291
C         86.24243       86.32023       23.44596
C         85.02232       85.53242       22.96091
O         84.97662       85.14213       21.80304
C         86.43928       87.65447       22.69774
C         85.41229       88.66184       23.08363
O         84.44170       88.32813       23.93907
O         85.46244       89.78570       22.62932
H         88.18304       85.80250       22.67719
H         86.14068       86.58392       24.52341
H         86.44252       87.49715       21.59790
H         87.41237       88.09588       22.99466
N         84.02150       85.22387       23.83203
C         82.87334       84.37112       23.52352
C         81.96557       84.97711       22.46401
O         81.69866       84.31298       21.47186
C         82.03832       84.08502       24.79728
C         82.85612       83.37492       25.89496
C         81.98005       83.01697       27.10389
C         82.78232       82.43108       28.28213
N         83.50942       81.21207       27.92500
H         84.11936       85.57067       24.79000
H         83.24555       83.38550       23.16112
H         81.18923       83.42311       24.51350
H         81.62089       85.03244       25.20384
H         83.67919       84.02885       26.24296
H         83.29564       82.44785       25.47068
H         81.19808       82.29277       26.78715
H         81.47445       83.93655       27.47268
H         82.06873       82.20190       29.10430
H         83.50275       83.18561       28.66383
H         82.85515       80.50043       27.52738
H         84.26993       81.42635       27.24105
H         83.95579       80.82155       28.78619
N         81.45197       86.23322       22.61554
C         80.52909       86.85524       21.66091
C         81.21935       87.86639       20.74997
O         80.54212       88.43532       19.90379
C         79.27334       87.44298       22.36785
C         79.51274       88.54984       23.36609
O         80.74942       88.90482       23.72092
O         78.56741       89.09866       23.90535
H         81.77085       86.77636       23.42798
H         80.14005       86.08050       20.96182
H         78.73633       86.62463       22.89405
H         78.59317       87.84162       21.58369
N         82.57041       88.06431       20.77867
C         83.26980       88.85355       19.77566
C         83.06380       90.35286       19.84732
O         83.59523       91.02446       18.97352
H         83.15070       87.54059       21.44770
H         82.96586       88.48943       18.76811
H         84.36189       88.67416       19.87361
N         82.34004       90.97100       20.82818
C         82.14892       92.42479       20.83945
C         83.44850       93.22073       21.05134
O         83.40155       94.43567       20.92043
C         81.06183       92.83612       21.86745
C         81.41760       92.60697       23.31619
N         80.52934       92.89748       24.29263
O         82.50965       92.16813       23.62046
H         81.88000       90.39925       21.55083
H         81.74293       92.70056       19.84031
H         80.13638       92.26310       21.64076
H         80.83486       93.91647       21.74217
H         79.59788       93.27149       24.06352
H         80.77604       92.74544       25.28242
N         84.62813       92.61766       21.39546
C         85.89499       93.32075       21.57653
C         86.40312       93.32238       23.01523
O         87.43139       93.94032       23.25075
H         84.63852       91.60751       21.53246
H         85.79041       94.38659       21.28051
H         86.65605       92.86481       20.90728
N         85.70342       92.74578       24.03718
C         85.98936       92.97331       25.45481
C         85.99404       91.67601       26.25241
O         85.02623       90.93286       26.16648
C         84.86546       93.87519       26.00542
C         84.82577       95.20853       25.29392
C         83.73839       95.54244       24.46878
C         85.87739       96.12819       25.44556
C         83.70521       96.77153       23.80461
C         85.83770       97.36165       24.78799
C         84.75040       97.68675       23.96388
O         84.69819       98.87230       23.32379
H         84.84097       92.24005       23.81852
H         86.95551       93.50432       25.59975
H         84.99846       94.05361       27.09453
H         83.89587       93.34593       25.86803
H         82.91975       94.84996       24.33004
H         86.72378       95.89394       26.07889
H         82.86423       97.01286       23.16664
H         86.65167       98.06333       24.92015
H         85.39555       99.53736       23.41405
N         87.02182       91.37263       27.10470
C         87.02920       90.18735       27.96584
C         87.08846       90.60560       29.43381
O         88.09414       91.15617       29.86101
C         88.22310       89.25890       27.58944
C         88.04271       88.74538       26.13782
C         88.35683       88.08301       28.57906
C         89.20960       87.89240       25.63569
H         87.82424       92.01792       27.16667
H         86.09689       89.60249       27.82295
H         89.16279       89.85250       27.64955
H         87.95665       89.61470       25.45164
H         87.10397       88.15462       26.06487
H         87.44544       87.45721       28.57345
H         89.23558       87.45301       28.34417
H         88.53350       88.45114       29.60706
H         89.30469       86.94971       26.21022
H         89.03674       87.60918       24.57928
H         90.15756       88.46672       25.69596
N         86.03658       90.35014       30.26910
C         86.06253       90.62537       31.70742
C         86.92222       89.60307       32.45345
O         87.41852       88.67016       31.84151
C         84.62631       90.61981       32.27749
O         84.02965       89.35527       32.16208
H         85.17588       89.96185       29.85782
H         86.46340       91.65022       31.86855
H         84.01228       91.39610       31.76399
H         84.62826       90.90210       33.35101
H         83.44650       89.37096       31.35938
N         87.11416       89.71014       33.80085
C         87.85440       88.73048       34.59898
C         87.18762       87.36859       34.55492
O         87.87619       86.37916       34.35236
C         87.95084       89.18784       36.05672
H         86.70451       90.52293       34.28563
H         88.89874       88.64759       34.22113
H         86.94311       89.29076       36.51130
H         88.53742       88.44823       36.64516
H         88.47611       90.16479       36.10965
N         85.83954       87.25029       34.72247
C         85.12253       85.98130       34.62213
C         85.35546       85.34312       33.26367
O         85.78318       84.19951       33.19607
C         83.61614       86.21469       34.82279
H         85.29579       88.11160       34.88969
H         85.46905       85.29156       35.42319
H         83.42833       86.66003       35.82247
H         83.21108       86.90788       34.05339
H         83.06295       85.25356       34.75627
N         85.09895       86.05592       32.13391
C         85.25235       85.54630       30.77280
C         86.69211       85.15527       30.43846
O         86.89871       84.48255       29.43790
C         84.73431       86.64091       29.81795
C         84.68178       86.29400       28.33084
C         84.09426       87.43823       27.54815
O         83.97177       87.33834       26.34508
O         83.68493       88.57179       28.15208
H         84.74940       87.01490       32.26104
H         84.61099       84.64134       30.68299
H         85.36723       87.54570       29.95069
H         83.69556       86.88634       30.13487
H         84.04747       85.39909       28.18298
H         85.69722       86.08287       27.93861
N         87.73935       85.53919       31.21793
C         89.10587       85.15504       30.94361
H         89.78110       85.60352       31.70468
H         89.20486       84.05027       30.99210
H         89.41279       85.51592       29.94074
H         87.57396       86.13931       32.02801
Ca        82.72075       89.60812       24.41497
O         82.30531       91.26668       27.38435
H         82.95620       91.80012       27.90639
H         81.42258       91.63917       27.63299
O         80.94604       87.63332       26.72585
H         80.34223       87.43998       25.96641
H         80.86681       86.83905       27.31149

Ca 1.0



