%chk=holoCaM.loop2.water2.frame66.chk
%nprocshared=20
%mem=10GB
%nosave
#b3lyp/svp scf=(tight,noincore,xqc) Test 
#IOP(5/87=12) Density=Current Pop=(MK,readradii) iop(6/33=2) iop(6/42=6)

holoCaM.loop2.water2.frame66 

   -2  1 
C         98.41663       20.20745        5.83723
C         98.56348       21.40788        4.94607
O         97.85772       21.51762        3.95420
H         98.13985       20.53803        6.86198
H         97.62787       19.52190        5.46223
H         99.38015       19.65828        5.88727
N         99.46259       22.37378        5.27212
C         99.63943       23.60764        4.51462
C        100.22544       23.33484        3.13043
O        101.22993       22.64351        3.03831
C        100.56200       24.56218        5.30347
C        100.56167       25.96475        4.76464
O        101.33387       26.90212        5.34381
O         99.82827       26.27934        3.84411
H        100.01002       22.24184        6.13776
H         98.64786       24.10545        4.43586
H        101.59618       24.15645        5.31574
H        100.20097       24.63769        6.35177
N         99.65959       23.88153        2.01515
C        100.12357       23.64426        0.64938
C        100.57712       24.92078       -0.06945
O        100.89400       24.82267       -1.24764
C         98.97167       23.00430       -0.14016
H         98.84744       24.49547        2.13985
H        100.97495       22.93004        0.63909
H         98.63904       22.06710        0.35428
H         98.10709       23.69922       -0.20493
H         99.29396       22.75327       -1.17361
N        100.64371       26.14283        0.54545
C        100.92455       27.38605       -0.19377
C        101.27905       28.62428        0.66086
O        101.48892       29.67308        0.06611
C         99.70050       27.70572       -1.08107
C         98.46226       27.91311       -0.26012
O         98.51830       27.92624        1.08606
O         97.38567       28.05932       -0.81628
H        100.42144       26.18059        1.53812
H        101.80971       27.22078       -0.84634
H         99.51093       26.85400       -1.76697
H         99.88007       28.60374       -1.70989
N        101.42465       28.59591        2.01856
C        101.89068       29.73202        2.80159
C        100.91437       30.87942        3.01531
O        101.31800       31.81347        3.69470
H        101.33292       27.71666        2.53072
H        102.83063       30.11725        2.35078
H        102.14233       29.36311        3.82029
N         99.63540       30.91034        2.53003
C         98.72936       32.03348        2.81527
C         98.26522       32.09654        4.28867
O         97.50692       32.99758        4.61870
C         97.53477       32.06461        1.82583
C         96.51897       30.96894        1.97201
N         95.45396       30.92114        1.13901
O         96.63990       30.13120        2.84527
H         99.31121       30.14961        1.91955
H         99.28103       32.97270        2.58647
H         97.93651       32.03718        0.78912
H         96.99397       33.02775        1.95281
H         95.33268       31.62635        0.39758
H         94.74684       30.17968        1.23265
N         98.70598       31.20859        5.23268
C         98.38868       31.27648        6.65501
C         97.03621       30.71134        7.06571
O         96.79262       30.66168        8.26290
H         99.39808       30.50051        4.97164
H         98.52151       32.31639        7.02516
H         99.13481       30.64729        7.18838
N         96.11365       30.26356        6.16713
C         94.81571       29.69953        6.54006
C         94.57299       28.35278        5.86196
O         94.68266       28.26654        4.64835
C         93.68194       30.67723        6.15059
C         93.72046       31.94810        7.00236
O         93.76439       31.03279        4.79302
H         96.31362       30.36362        5.16888
H         94.73611       29.55551        7.64065
H         92.69711       30.19719        6.37091
H         93.19563       30.39721        4.28706
H         92.87192       32.60975        6.72748
H         93.62026       31.68843        8.07909
H         94.67004       32.50219        6.85162
N         94.13800       27.27897        6.58816
C         93.67357       26.02106        5.98714
C         92.52533       26.30697        5.02115
O         91.59267       27.00939        5.38474
C         93.27361       24.99119        7.09790
C         94.56901       24.48447        7.79472
C         92.47770       23.80075        6.51682
C         94.34512       23.53805        8.97427
H         94.05690       27.38981        7.61049
H         94.49293       25.55982        5.40602
H         92.61066       25.49626        7.83541
H         95.15047       25.34994        8.17637
H         95.19518       23.94905        7.04779
H         91.53445       24.15034        6.04750
H         93.07540       23.25249        5.75973
H         92.16376       23.09918        7.31470
H         93.75196       24.04059        9.76523
H         93.84011       22.60240        8.66150
H         95.33188       23.24895        9.39616
N         92.53897       25.75836        3.76767
C         91.55025       26.04528        2.72624
C         90.72451       24.81685        2.40830
O         90.84993       23.82091        3.09462
C         92.26240       26.49059        1.43833
C         93.38057       27.41806        1.71784
O         94.59169       27.01508        1.32665
O         93.21779       28.47346        2.30674
H         93.30232       25.11259        3.52282
H         90.87281       26.86381        3.05214
H         91.55535       26.95851        0.72386
H         92.71188       25.59569        0.94751
N         89.84604       24.82478        1.36810
C         88.98866       23.69742        1.02778
C         89.76897       22.43367        0.61899
O         89.57299       21.43825        1.30370
C         87.91889       24.17131        0.01729
C         86.89478       23.13098       -0.35121
C         86.16418       22.45294        0.64073
C         86.62873       22.86147       -1.70453
C         85.19210       21.51678        0.28279
C         85.64481       21.93460       -2.05759
C         84.92877       21.26102       -1.06486
H         89.74391       25.69343        0.82368
H         88.42325       23.44351        1.95037
H         88.37870       24.59703       -0.89173
H         87.37175       25.01137        0.49824
H         86.33997       22.64468        1.69058
H         87.16700       23.38241       -2.48733
H         84.63750       20.99638        1.05237
H         85.43365       21.74381       -3.10152
H         84.16644       20.54459       -1.33935
N         90.66070       22.34522       -0.42626
C         91.41479       21.13109       -0.75499
C         92.12473       20.51345        0.43590
O         92.05599       19.31026        0.63906
C         92.48241       21.62512       -1.74714
C         91.74853       22.72050       -2.46883
C         91.02777       23.42801       -1.32028
H         90.73520       20.39698       -1.24334
H         93.31800       22.12969       -1.20883
H         92.92192       20.82926       -2.38702
H         92.38134       23.38114       -3.09959
H         90.98835       22.22750       -3.11719
H         91.69155       24.13122       -0.77292
H         90.17423       23.95840       -1.76875
N         92.84777       21.32092        1.25234
C         93.67001       20.87488        2.37051
C         92.82169       20.16044        3.40744
O         93.13945       19.03482        3.76405
C         94.39903       22.09473        2.98399
C         95.31270       22.78688        1.94149
C         95.95065       24.04223        2.44384
O         95.82200       24.43098        3.72224
O         96.56647       24.74566        1.66310
H         92.79841       22.32837        1.04982
H         94.45511       20.17643        2.00277
H         95.01410       21.77220        3.85222
H         93.63824       22.81878        3.34460
H         94.73186       23.09853        1.05388
H         96.10345       22.08653        1.59727
N         91.70361       20.75256        3.90548
C         90.81775       20.15009        4.87801
H         89.80956       20.02961        4.42661
H         91.17589       19.15765        5.21931
H         90.73272       20.82211        5.75787
H         91.44553       21.67531        3.55510
Ca        96.56492       27.63859        2.03947
O         97.21136       25.84200        6.24149
H         97.01746       24.91546        5.95898
H         97.89204       25.74457        6.95267
O         98.00024       28.22417        5.01526
H         98.29908       28.28335        5.95761
H         98.81197       28.42019        4.48644

Ca 1.0



