%chk=holoCaM.loop4.water3.frame283.chk
%nprocshared=20
%mem=10GB
%nosave
#b3lyp/svp scf=(tight,noincore,xqc) Test 
#IOP(5/87=12) Density=Current Pop=(MK,readradii) iop(6/33=2) iop(6/42=6)

holoCaM.loop4.water3.frame283 

   -3  1 
C         41.36201       72.77333       81.93232
C         42.80486       72.61638       82.30131
O         43.42279       73.60162       82.67828
H         41.03812       73.82902       82.06668
H         41.21039       72.48466       80.87276
H         40.74032       72.12822       82.58735
N         43.41606       71.39855       82.21071
C         44.80909       71.18952       82.59133
C         45.28222       69.78050       82.26047
O         44.70598       68.82403       82.76292
C         45.00374       71.43682       84.10452
C         46.44080       71.25940       84.48835
O         46.78888       70.33498       85.40365
O         47.29952       71.93970       83.95168
H         42.86827       70.60223       81.84898
H         45.43365       71.91427       82.03068
H         44.37011       70.73402       84.68861
H         44.71123       72.46781       84.38259
N         46.38137       69.59380       81.46966
C         46.97876       68.28770       81.20068
C         48.42253       68.18281       81.71404
O         48.98527       67.10605       81.58676
C         46.96372       67.97122       79.66904
C         47.87325       68.94184       78.86113
C         45.52325       67.96792       79.12974
C         48.10327       68.51195       77.41349
H         46.83103       70.42348       81.06158
H         46.39751       67.49467       81.72147
H         47.37231       66.94308       79.54669
H         48.88185       68.98115       79.32219
H         47.45110       69.96409       78.87037
H         44.90091       67.25365       79.70832
H         45.07112       68.97988       79.20504
H         45.49401       67.64694       78.06906
H         48.56386       67.50124       77.38487
H         47.16245       68.50989       76.82947
H         48.80481       69.22646       76.93308
N         49.11136       69.26078       82.21127
C         50.55831       69.22628       82.46775
C         50.99405       69.63713       83.86599
O         52.15754       69.42553       84.18726
C         51.27965       70.12766       81.44583
C         50.89963       71.59858       81.48234
O         49.93786       72.08796       82.30587
O         51.47774       72.35589       80.72556
H         48.62259       70.15432       82.30090
H         50.93452       68.19031       82.32343
H         51.06998       69.74331       80.42401
H         52.37629       70.04392       81.61290
N         50.16723       70.27456       84.72935
C         50.57198       70.70578       86.05312
C         51.74722       71.66610       86.05586
O         52.70351       71.39269       86.76718
H         49.20372       70.47525       84.44621
H         50.81904       69.81470       86.67147
H         49.71327       71.21859       86.53468
N         51.72920       72.83135       85.33928
C         52.75173       73.87312       85.50366
C         52.15269       75.15859       86.08106
O         52.91341       76.05917       86.40798
C         53.57149       74.10368       84.21009
C         52.83457       74.68019       83.03600
O         51.54075       75.00691       83.12195
O         53.42937       74.87750       81.98889
H         50.93561       73.00276       84.70474
H         53.49468       73.53820       86.25871
H         54.01148       73.13179       83.90044
H         54.40673       74.80018       84.44240
N         50.80657       75.30106       86.26845
C         50.17458       76.42733       86.93022
C         49.27141       77.21889       86.01153
O         48.53583       78.05187       86.52219
H         50.16698       74.56395       85.96215
H         50.91416       77.12947       87.37097
H         49.56663       76.01550       87.76516
N         49.33610       77.09781       84.65081
C         48.59577       77.96298       83.74304
C         47.87326       77.14896       82.63526
O         48.81533       76.49752       81.81885
C         49.55750       79.01003       83.13055
C         50.17783       79.91420       84.21150
C         51.06907       80.99370       83.64891
N         51.66653       81.87074       84.48769
O         51.25536       81.08862       82.44410
H         50.02062       76.45786       84.23757
H         47.81437       78.52387       84.30293
H         48.99065       79.66188       82.43093
H         50.36504       78.49834       82.56232
H         50.78234       79.30015       84.91211
H         49.35977       80.40653       84.78151
H         51.51877       81.80699       85.50589
H         52.27574       82.61635       84.12014
N         47.08553       78.08213       81.80963
C         46.20477       77.45774       80.80667
C         46.84105       77.69048       79.44678
O         47.12031       78.83022       79.10085
C         44.75691       78.05088       80.85137
C         43.85933       77.40800       79.77815
C         44.07972       77.83524       82.22050
H         46.60479       78.81043       82.38255
H         46.10810       76.36615       80.99365
H         44.80708       79.14502       80.65497
H         42.84076       77.85023       79.80987
H         44.26197       77.58483       78.76260
H         43.77174       76.31321       79.94687
H         44.62699       78.32309       83.04993
H         43.06036       78.27737       82.21153
H         43.98925       76.75322       82.44913
N         47.06375       76.64277       78.60981
C         47.66255       76.75621       77.28199
C         46.54121       76.77883       76.24460
O         45.38415       76.70832       76.63280
C         48.61862       75.54324       77.13779
C         49.65468       75.51332       76.04085
N         50.44993       74.42343       75.92041
O         49.82306       76.46175       75.29368
H         46.74502       75.71242       78.90851
H         48.23945       77.70359       77.20848
H         48.00248       74.61899       77.08395
H         49.21092       75.50248       78.06497
H         50.33929       73.61880       76.55628
H         51.17884       74.37964       75.19317
N         46.78569       76.91357       74.91174
C         45.72907       76.87748       73.90641
C         45.06551       75.51121       73.90125
O         43.84688       75.43794       73.93451
C         46.30179       77.19886       72.50993
C         45.20692       77.32419       71.47447
C         44.21632       78.31503       71.60774
C         45.16584       76.46199       70.36698
C         43.20125       78.43517       70.65651
C         44.14910       76.58615       69.41383
C         43.16258       77.57349       69.55713
O         42.17675       77.70506       68.64703
H         47.74608       77.05418       74.58899
H         44.98249       77.66367       74.15204
H         47.03752       76.41510       72.22322
H         46.84193       78.16982       72.54878
H         44.22703       78.99846       72.44722
H         45.91790       75.69342       70.24067
H         42.44481       79.20114       70.77483
H         44.12892       75.91486       68.56494
H         42.11368       77.13225       67.86977
N         45.82584       74.37912       73.88584
C         45.26923       73.02562       73.92838
C         44.48012       72.70906       75.20906
O         43.89953       71.63405       75.26643
C         46.39516       71.98356       73.70806
C         47.43694       71.93474       74.84284
C         48.56028       71.00235       74.49125
O         49.70565       71.42019       74.42448
O         48.31222       69.70156       74.24710
H         46.84753       74.49759       73.82187
H         44.56945       72.93296       73.06818
H         46.90749       72.23590       72.75293
H         45.94701       70.97184       73.59174
H         46.95880       71.58078       75.77887
H         47.86204       72.94292       75.02814
N         44.40564       73.57865       76.26291
C         43.65586       73.32410       77.49402
C         42.51417       74.32304       77.69295
O         41.75239       74.14168       78.63279
C         44.59545       73.45974       78.70939
C         45.86225       72.59651       78.62361
C         46.83558       72.88906       79.73851
O         48.03047       72.27105       79.75488
O         46.57595       73.70312       80.61059
H         44.92207       74.45671       76.21218
H         43.21472       72.30416       77.46647
H         44.04640       73.22172       79.64710
H         44.90731       74.52175       78.75499
H         46.39212       72.82330       77.67840
H         45.58301       71.52191       78.63372
N         42.35210       75.41640       76.89122
C         41.31494       76.41068       77.07539
H         40.64302       76.17473       77.92562
H         41.78789       77.39823       77.26497
H         40.70725       76.48245       76.14921
H         43.00227       75.59337       76.12349
Ca        49.12785       74.24488       82.29103
O         47.79078       73.94915       85.78947
H         48.31212       73.13592       86.00530
H         47.43537       74.25506       86.65947
O         46.17128       74.71093       83.58808
H         45.67497       74.97666       84.40196
H         45.61673       75.04578       82.84273
O         50.62101       74.78931       79.88831
H         51.57447       74.98073       79.71001
H         50.39980       74.03864       79.27990

Ca 1.0



