%chk=holoCaM.loop4.water3.frame379.chk
%nprocshared=20
%mem=10GB
%nosave
#b3lyp/svp scf=(tight,noincore,xqc) Test 
#IOP(5/87=12) Density=Current Pop=(MK,readradii) iop(6/33=2) iop(6/42=6)

holoCaM.loop4.water3.frame379 

   -3  1 
C         92.84892       77.33782       74.91540
C         93.80013       76.20913       75.17657
O         93.36398       75.06856       75.12554
H         92.02204       77.30888       75.65545
H         93.35591       78.32224       74.97450
H         92.42153       77.22095       73.89586
N         95.11667       76.44309       75.46324
C         96.08002       75.36085       75.65945
C         97.43583       75.90244       76.11823
O         97.92671       76.86997       75.55337
C         96.26617       74.56027       74.34665
C         96.95880       73.23727       74.54326
O         97.21305       72.54509       73.57190
O         97.22735       72.76416       75.77454
H         95.43312       77.42147       75.54360
H         95.67077       74.68533       76.44299
H         96.82748       75.18607       73.62000
H         95.29107       74.30707       73.88779
N         98.11915       75.26563       77.10805
C         99.40617       75.68559       77.65571
C        100.50920       74.70125       77.25488
O        101.56948       75.14158       76.83383
C         99.27969       75.77211       79.21510
C         98.19860       76.81528       79.61229
C        100.63674       76.10465       79.87252
C         97.91477       76.88410       81.11698
H         97.69812       74.41967       77.50922
H         99.70093       76.69111       77.27789
H         98.96147       74.77454       79.59472
H         97.23794       76.54902       79.12332
H         98.49974       77.82411       79.25475
H        101.39875       75.33809       79.62099
H        101.00256       77.09882       79.54066
H        100.56129       76.09460       80.97817
H         98.80033       77.22972       81.68719
H         97.09854       77.61371       81.30458
H         97.59318       75.89110       81.49652
N        100.34149       73.36162       77.42401
C        101.40797       72.35696       77.32632
C        101.21277       71.32246       76.21103
O        102.06318       70.44855       76.10253
C        101.54610       71.64924       78.70729
C        100.20128       71.29365       79.28441
O         99.27810       70.71540       78.50162
O         99.85553       71.77731       80.35105
H         99.40825       73.04407       77.70743
H        102.38626       72.83521       77.10036
H        102.02825       72.35590       79.41840
H        102.20084       70.75550       78.63477
N        100.18235       71.35869       75.31708
C        100.06403       70.40602       74.21167
C         99.76932       68.96336       74.61772
O         99.75760       68.11385       73.73801
H         99.50566       72.12677       75.36585
H        101.01327       70.43007       73.63085
H         99.25082       70.73050       73.52904
N         99.53636       68.60131       75.91157
C         99.34657       67.22040       76.36450
C         98.02917       66.55540       75.93503
O         97.82315       65.41004       76.31290
C         99.51178       67.14007       77.90389
C         98.48471       67.87579       78.72001
O         97.60336       68.53508       78.19474
O         98.55965       67.82053       80.06230
H         99.57505       69.33300       76.62338
H        100.18313       66.61259       75.95397
H        100.51155       67.54515       78.17464
H         99.48755       66.07307       78.21052
N         97.10697       67.16957       75.13959
C         95.88046       66.51463       74.69213
C         94.78222       66.40528       75.74085
O         93.73018       65.88044       75.39806
H         97.30689       68.10139       74.76045
H         96.12705       65.51181       74.27906
H         95.44779       67.11493       73.86319
N         94.91224       66.89757       77.00580
C         93.84370       66.88868       78.00370
C         93.48604       68.31000       78.42002
O         94.07966       69.25890       77.91662
C         94.26576       66.03882       79.22473
C         94.38399       64.55267       78.85551
C         94.63381       63.69777       80.07209
N         95.76689       63.83114       80.79851
O         93.79969       62.86766       80.40309
H         95.80127       67.32595       77.28049
H         92.90962       66.44817       77.58869
H         93.48678       66.10617       80.01189
H         95.21758       66.42477       79.65208
H         95.19467       64.39500       78.11339
H         93.42183       64.23178       78.39647
H         96.48786       64.51637       80.53207
H         95.92577       63.23899       81.62762
N         92.50272       68.52861       79.33815
C         92.06203       69.84530       79.77846
C         92.43667       70.02343       81.23620
O         92.07936       69.18427       82.05554
C         90.52518       69.99641       79.58259
C         90.03505       71.38569       80.03398
C         90.12404       69.77850       78.11638
H         92.02604       67.71572       79.76059
H         92.55416       70.64604       79.18158
H         90.00270       69.22864       80.19671
H         88.93584       71.47215       79.89802
H         90.24488       71.54915       81.11002
H         90.53061       72.18926       79.44702
H         89.02187       69.87277       78.00583
H         90.61431       70.52787       77.45892
H         90.40865       68.76032       77.77859
N         93.10537       71.13899       81.63635
C         93.43327       71.43964       83.02406
C         92.47093       72.49621       83.52971
O         91.68978       73.01126       82.74504
C         94.91078       71.90051       83.07783
C         95.45644       72.23650       84.44041
N         95.50615       71.30497       85.41862
O         95.89608       73.35626       84.65222
H         93.31266       71.86349       80.93184
H         93.28690       70.53612       83.65534
H         95.02694       72.78864       82.41446
H         95.54267       71.08920       82.67779
H         95.16278       70.34863       85.25303
H         95.89922       71.54151       86.34173
N         92.40598       72.81921       84.84685
C         91.49451       73.83972       85.36010
C         91.91310       75.23267       84.90594
O         91.04741       76.06584       84.67901
C         91.30927       73.69948       86.88548
C         92.58735       73.77189       87.68561
C         93.13177       72.59501       88.23083
C         93.23794       74.99477       87.90918
C         94.31280       72.63767       88.97158
C         94.41431       75.03741       88.66576
C         94.95792       73.86084       89.19439
O         96.09603       73.91616       89.91443
H         92.99517       72.29023       85.50464
H         90.47988       73.64031       84.94328
H         90.85889       72.69217       87.03357
H         90.57012       74.43159       87.27678
H         92.64990       71.63808       88.06960
H         92.82948       75.91496       87.51181
H         94.72281       71.71883       89.37184
H         94.90430       75.98652       88.84059
H         96.50148       73.12306       90.29381
N         93.22880       75.53193       84.69188
C         93.70290       76.81864       84.17523
C         93.28676       77.06517       82.71818
O         93.59374       78.13212       82.20368
C         95.24876       76.89541       84.24863
C         95.79537       76.77400       85.68128
C         97.29445       76.86639       85.68932
O         98.03115       75.83587       86.14707
O         97.85276       77.87517       85.28779
H         93.92173       74.80940       84.91797
H         93.28757       77.63089       84.81237
H         95.57892       77.87778       83.84282
H         95.68736       76.09165       83.61561
H         95.50664       75.79977       86.12284
H         95.37828       77.58395       86.31762
N         92.60534       76.13434       81.98921
C         92.21731       76.28869       80.59250
C         90.70612       76.34163       80.50751
O         90.17684       77.34185       80.04449
C         92.75896       75.09784       79.77024
C         94.28980       75.03236       79.80196
C         94.84272       73.77071       79.20536
O         96.16813       73.58432       79.26177
O         94.12366       72.90265       78.73714
H         92.34869       75.25052       82.42909
H         92.62462       77.23311       80.16590
H         92.41933       75.16697       78.71299
H         92.36008       74.15517       80.20308
H         94.63958       75.04939       80.85552
H         94.71355       75.91319       79.27267
N         89.94670       75.29978       80.95199
C         88.50078       75.28612       80.93328
H         88.07395       76.22183       80.51804
H         88.15236       74.42941       80.31950
H         88.12790       75.15734       81.97143
H         90.40556       74.46506       81.33209
Ca        97.27657       71.70472       78.73273
O         93.85280       71.96671       75.81018
H         94.11236       72.83873       76.19584
H         93.04252       71.70054       76.31214
O         96.42967       69.99911       80.73863
H         97.39990       70.00784       80.93884
H         96.22491       69.07018       80.47052
O         95.72663       69.94078       75.41718
H         96.17665       70.21491       74.57933
H         94.89032       69.50523       75.11476

Ca 1.0



