%chk=holoCaM-CaMKII.loop4.water2.frame188.chk
%nprocshared=20
%mem=10GB
%nosave
#b3lyp/svp scf=(tight,noincore,xqc) Test 
#IOP(5/87=12) Density=Current Pop=(MK,readradii) iop(6/33=2) iop(6/42=6)

holoCaM-CaMKII.loop4.water2.frame188 

   -3  1 
C          0.15338       46.54029       21.05148
C          0.43080       45.09216       21.30962
O          0.82011       44.37987       20.39453
H         -0.90815       46.76292       21.28860
H          0.81010       47.16095       21.69680
H          0.34781       46.79459       19.98839
N          0.25659       44.58610       22.55971
C          0.52688       43.19502       22.88811
C         -0.41813       42.28575       22.10877
O         -1.61352       42.54817       22.13899
C          0.34889       42.96208       24.39847
C          0.89930       41.63083       24.79918
O          1.64385       40.91926       23.93477
O          0.70016       41.21261       25.91934
H         -0.06018       45.22531       23.30633
H          1.58826       42.99685       22.63636
H         -0.73189       43.02351       24.65396
H          0.89512       43.72850       24.98997
N          0.03556       41.21402       21.38488
C         -0.82167       40.46376       20.46662
C         -1.14736       39.03923       20.93762
O         -2.04795       38.44371       20.36358
C         -0.16507       40.52139       19.04759
C         -1.15430       40.41592       17.86617
C          0.94266       39.45769       18.90123
C         -2.09199       41.62659       17.77345
H          1.02999       40.96737       21.42859
H         -1.79594       40.98426       20.43824
H          0.31805       41.52014       18.93725
H         -1.73602       39.47240       17.90961
H         -0.56366       40.41622       16.92263
H          1.68110       39.52806       19.72445
H          0.51187       38.43394       18.91350
H          1.48188       39.59086       17.93914
H         -1.49991       42.56709       17.71745
H         -2.70636       41.55156       16.85275
H         -2.78266       41.68930       18.63595
N         -0.46782       38.42670       21.95684
C         -0.81071       37.09956       22.48885
C         -1.11418       37.14496       23.99679
O         -1.45032       36.10670       24.54971
C          0.27639       36.05701       22.12039
C          1.64028       36.45154       22.58848
O          2.51418       36.70631       21.77465
O          1.86334       36.66862       23.89262
H          0.33672       38.91313       22.37409
H         -1.74215       36.72480       22.01045
H          0.29801       35.96311       21.01134
H          0.01182       35.06063       22.53545
N         -1.10229       38.31415       24.70687
C         -1.58079       38.44075       26.07723
C         -0.69964       37.82990       27.14723
O         -1.19333       37.00853       27.90691
H         -0.86278       39.19551       24.23438
H         -2.61211       38.02652       26.13921
H         -1.65115       39.52183       26.32292
N          0.58985       38.24725       27.31955
C          1.43042       37.83633       28.45123
C          1.96878       39.02065       29.27628
O          2.57398       38.76745       30.30905
C          2.56508       36.91125       27.96753
C          3.53936       37.54213       27.01323
O          3.43427       38.83440       26.66766
O          4.44584       36.87200       26.54744
H          0.97728       38.88906       26.61946
H          0.82109       37.23053       29.15723
H          2.10056       36.03667       27.46341
H          3.13434       36.53950       28.84699
N          1.78985       40.32392       28.90364
C          2.19442       41.47738       29.69572
C          3.22904       42.36762       29.02401
O          3.42522       43.46740       29.51822
H          1.30039       40.53560       28.03490
H          2.59058       41.19080       30.69307
H          1.27846       42.08400       29.86944
N          3.98232       41.95315       27.95974
C          5.03377       42.77740       27.35581
C          4.86744       42.88599       25.84611
O          3.98610       42.26446       25.27464
C          6.42176       42.17836       27.68148
C          6.72415       42.19772       29.18542
C          8.11672       41.69180       29.46519
N          8.46834       40.41916       29.16668
O          8.93770       42.44156       29.97249
H          3.86240       40.99857       27.60699
H          5.00348       43.81216       27.76014
H          7.21472       42.77524       27.18269
H          6.48491       41.14218       27.29574
H          5.99172       41.57446       29.74048
H          6.64076       43.24675       29.54691
H          7.79021       39.76666       28.74781
H          9.42316       40.08248       29.36116
N          5.72593       43.68314       25.14225
C          5.72109       43.83818       23.69447
C          7.05814       43.35757       23.15408
O          8.08228       43.96379       23.43379
C          5.43429       45.33308       23.34319
C          5.82662       45.73730       21.91330
C          3.94192       45.63640       23.54842
H          6.44051       44.21374       25.66092
H          4.93023       43.21230       23.22689
H          6.04037       45.97862       24.01724
H          5.60122       46.81237       21.74673
H          6.91905       45.62539       21.76097
H          5.28011       45.14086       21.16202
H          3.33125       45.03269       22.83970
H          3.62370       45.39701       24.58317
H          3.73410       46.71012       23.35414
N          7.10239       42.25929       22.34427
C          8.30926       41.80353       21.65849
C          8.71068       42.84134       20.61434
O          7.96115       43.77663       20.39614
C          8.00705       40.42972       20.99631
C          9.17441       39.76693       20.31105
N         10.28813       39.43247       21.00171
O          9.10312       39.50587       19.11972
H          6.23071       41.73838       22.19547
H          9.11554       41.67746       22.41270
H          7.18242       40.56117       20.26078
H          7.65069       39.72831       21.78197
H         10.36348       39.62937       22.00951
H         11.07723       38.97081       20.52517
N          9.87909       42.75557       19.92650
C         10.24091       43.69711       18.86724
C          9.25313       43.60068       17.70899
O          8.74491       44.62339       17.27313
C         11.68689       43.42851       18.40891
C         12.13927       44.35182       17.30038
C         12.09876       45.75084       17.45248
C         12.61915       43.80970       16.09744
C         12.52044       46.58657       16.41354
C         13.05008       44.64655       15.06574
C         12.99938       46.03888       15.21912
O         13.40965       46.85677       14.22918
H         10.53546       41.99832       20.16434
H         10.21924       44.73133       19.27713
H         11.78121       42.36780       18.08858
H         12.35852       43.57868       19.28274
H         11.73729       46.20003       18.36837
H         12.66800       42.73693       15.95929
H         12.47716       47.66155       16.53821
H         13.42336       44.21011       14.14830
H         13.75256       46.51582       13.39068
N          8.89552       42.38428       17.21025
C          7.89737       42.17420       16.15854
C          6.58989       42.87318       16.49569
O          6.08905       43.63764       15.68301
C          7.66409       40.65352       15.98982
C          6.64787       40.31201       14.89163
C          6.51720       38.82309       14.74103
O          6.09664       38.07090       15.77668
O          6.78872       38.28761       13.67835
H          9.32704       41.55574       17.64405
H          8.28227       42.58189       15.19780
H          7.31247       40.22124       16.95422
H          8.63675       40.17919       15.73280
H          6.98364       40.75761       13.93038
H          5.64915       40.72734       15.14680
N          6.00799       42.67131       17.70484
C          4.76939       43.30776       18.14956
C          4.84897       44.82235       18.01416
O          3.94012       45.40381       17.43765
C          4.48311       42.87319       19.60160
C          4.10742       41.38028       19.65096
C          4.03480       40.86667       21.05490
O          3.34502       41.42897       21.88269
O          4.75349       39.78708       21.41570
H          6.50916       42.05460       18.36208
H          3.91392       42.96923       17.52168
H          3.63197       43.45345       20.02415
H          5.38311       43.06843       20.21970
H          4.84289       40.75195       19.10774
H          3.12451       41.26304       19.15222
N          5.93164       45.51669       18.45695
C          6.09704       46.94694       18.29251
H          6.98050       47.13893       17.64644
H          5.21270       47.42696       17.82422
H          6.27232       47.41571       19.28224
H          6.70383       45.00653       18.89066
Ca         2.32831       38.81788       24.18203
O          6.13705       39.36412       25.07270
H          5.65699       39.57179       25.91055
H          6.58726       38.50316       25.26134
O          5.29298       37.35225       23.01584
H          5.85190       36.79227       22.42098
H          4.73693       36.70591       23.51865

Ca 1.0



