%chk=holoCaM-CaMKII.loop4.water2.frame302.chk
%nprocshared=20
%mem=10GB
%nosave
#b3lyp/svp scf=(tight,noincore,xqc) Test 
#IOP(5/87=12) Density=Current Pop=(MK,readradii) iop(6/33=2) iop(6/42=6)

holoCaM-CaMKII.loop4.water2.frame302 

   -3  1 
C         46.33661       31.31218       78.07338
C         44.99539       30.89277       78.60040
O         44.46078       29.90000       78.12960
H         47.06485       30.48760       78.22686
H         46.26292       31.53946       76.99040
H         46.71660       32.21244       78.60188
N         44.39103       31.60948       79.58724
C         43.13191       31.23041       80.21218
C         42.08701       32.29103       79.92194
O         42.37587       33.47128       80.06614
C         43.36686       31.06815       81.72178
C         42.19823       30.48423       82.46376
O         42.29909       30.31769       83.79004
O         41.18366       30.12322       81.88900
H         44.85762       32.46181       79.93579
H         42.78273       30.24823       79.82535
H         43.62944       32.05366       82.16398
H         44.21949       30.37327       81.88193
N         40.83802       31.93005       79.51472
C         39.81473       32.87651       79.09525
C         38.72167       32.93984       80.15805
O         38.56490       33.98514       80.77403
C         39.30914       32.44968       77.68048
C         40.46678       32.33784       76.64501
C         38.17658       33.34045       77.15464
C         41.20006       33.64524       76.34039
H         40.59921       30.93022       79.48684
H         40.24312       33.90001       79.02782
H         38.88325       31.42732       77.76690
H         40.06141       31.93998       75.68912
H         41.21702       31.60146       77.00678
H         37.30693       33.30448       77.84307
H         38.50442       34.39331       77.04915
H         37.83492       32.96315       76.16562
H         40.50960       34.39421       75.90350
H         41.67489       34.06072       77.25146
H         42.00304       33.44637       75.59912
N         37.93002       31.86540       80.43267
C         36.89017       31.87125       81.47028
C         37.43621       31.91307       82.91366
O         36.63028       32.01295       83.82882
C         35.93581       30.66282       81.30163
C         36.62461       29.32973       81.39269
O         35.96839       28.30141       81.39715
O         37.96718       29.27165       81.43333
H         38.04250       31.03497       79.83790
H         36.26390       32.77875       81.31971
H         35.42378       30.72254       80.31684
H         35.15491       30.72139       82.09115
N         38.76963       31.87153       83.19981
C         39.32223       32.03199       84.54003
C         39.07772       30.88622       85.51038
O         38.55369       31.14747       86.58457
H         39.44548       31.81385       82.42986
H         38.94778       32.98735       84.97334
H         40.42422       32.13163       84.45461
N         39.50905       29.61323       85.24531
C         39.52305       28.54191       86.25461
C         40.92212       27.93328       86.38536
O         41.04574       26.73285       86.59075
C         38.43261       27.48233       85.96577
C         38.59563       26.74516       84.66530
O         37.68652       26.04333       84.25373
O         39.68467       26.92113       83.90219
H         39.89793       29.41499       84.31316
H         39.26960       28.96897       87.24967
H         37.46177       28.02300       85.92999
H         38.37930       26.73848       86.78931
N         42.03074       28.71810       86.26966
C         43.40046       28.23534       86.39358
C         43.87989       27.23941       85.33774
O         45.03479       26.85255       85.43871
H         41.90294       29.73014       86.12787
H         43.52642       27.77909       87.39883
H         44.08113       29.11323       86.33455
N         43.09246       26.76007       84.32619
C         43.55448       25.76582       83.35013
C         43.34725       26.23213       81.91739
O         42.76658       27.28150       81.68622
C         42.78085       24.44350       83.54797
C         43.17046       23.72195       84.84518
C         42.45843       22.39682       85.00374
N         42.76251       21.59057       86.04558
O         41.61680       22.03672       84.19209
H         42.12034       27.07563       84.25194
H         44.64183       25.56404       83.46697
H         43.02091       23.73904       82.72297
H         41.68678       24.64384       83.51905
H         42.95256       24.36109       85.72641
H         44.26366       23.51906       84.81123
H         43.47956       21.86702       86.73175
H         42.29035       20.68098       86.15783
N         43.80662       25.44408       80.89572
C         43.59190       25.71712       79.47656
C         42.81309       24.53957       78.87282
O         42.68676       23.50943       79.51699
C         44.98636       25.91730       78.78423
C         44.90264       26.30939       77.29663
C         45.81718       26.98612       79.51501
H         44.33607       24.59167       81.13191
H         42.98616       26.63910       79.36305
H         45.55871       24.96500       78.84953
H         44.48317       25.49382       76.67978
H         44.30668       27.23814       77.16596
H         45.91928       26.48407       76.88497
H         46.80957       27.10140       79.02664
H         45.29734       27.96330       79.50989
H         46.00786       26.69051       80.56718
N         42.29272       24.61686       77.61442
C         41.71707       23.46264       76.92028
C         41.79702       23.64313       75.40283
O         42.34145       24.63103       74.93896
C         40.29743       23.11059       77.43293
C         39.20413       24.03884       76.96652
N         39.17323       25.33457       77.33885
O         38.31354       23.59936       76.25362
H         42.39049       25.50232       77.11404
H         42.36452       22.58449       77.13588
H         40.28944       23.04726       78.54072
H         40.04613       22.09279       77.06457
H         39.89718       25.72836       77.95426
H         38.40024       25.93712       77.02017
N         41.28881       22.69608       74.56339
C         41.39233       22.77753       73.10745
C         40.85743       24.09187       72.56673
O         41.54337       24.71569       71.76872
C         40.65198       21.58996       72.45841
C         40.74900       21.62980       70.95057
C         42.00046       21.57612       70.31163
C         39.58553       21.73609       70.17102
C         42.08520       21.63751       68.91840
C         39.67274       21.79330       68.77746
C         40.92434       21.74671       68.14652
O         41.02334       21.80678       66.80353
H         40.81511       21.88005       74.97354
H         42.46694       22.70613       72.83015
H         39.58612       21.61564       72.77703
H         41.09188       20.63589       72.82141
H         42.91217       21.49371       70.88941
H         38.61054       21.78025       70.64046
H         43.05548       21.60256       68.43912
H         38.76720       21.87740       68.19033
H         40.24487       21.88411       66.23384
N         39.65097       24.57847       72.95990
C         39.11592       25.85141       72.48338
C         40.05523       27.00144       72.82402
O         40.44781       27.72927       71.92284
C         37.71924       26.12184       73.08490
C         36.68123       25.08853       72.61527
C         35.32855       25.38724       73.19246
O         35.14551       25.37573       74.52682
O         34.38531       25.62777       72.45589
H         39.11010       24.02694       73.64250
H         38.99950       25.81147       71.37630
H         37.37511       27.12598       72.74914
H         37.77965       26.12711       74.19605
H         36.96970       24.06414       72.92780
H         36.62507       25.11075       71.50417
N         40.45314       27.22531       74.10882
C         41.29954       28.35745       74.50326
C         42.71216       28.29778       73.92424
O         43.44849       29.25847       74.10665
C         41.40849       28.43630       76.03963
C         40.04398       28.65552       76.71017
C         40.11471       28.60325       78.20870
O         38.98563       28.76204       78.91758
O         41.16643       28.39759       78.79364
H         40.10698       26.57710       74.83107
H         40.81784       29.29313       74.14120
H         42.07577       29.27563       76.33734
H         41.85893       27.49424       76.40242
H         39.32369       27.88325       76.39573
H         39.63371       29.63246       76.39162
N         43.17699       27.21947       73.23609
C         44.51308       27.16703       72.68556
H         45.26366       27.26227       73.49834
H         44.66963       26.19547       72.16900
H         44.65171       27.98595       71.94833
H         42.58164       26.39968       73.10160
Ca        39.17834       27.45342       81.82449
O         37.41395       26.09596       79.60467
H         36.98301       26.94019       79.31908
H         36.97917       25.86781       80.46384
O         39.80123       24.58171       81.30259
H         39.32010       24.03647       80.63128
H         40.72883       24.63530       80.96283

Ca 1.0



