%chk=holoCaM.loop2.water2.frame116.chk
%nprocshared=20
%mem=10GB
%nosave
#b3lyp/svp scf=(tight,noincore,xqc) Test 
#IOP(5/87=12) Density=Current Pop=(MK,readradii) iop(6/33=2) iop(6/42=6)

holoCaM.loop2.water2.frame116 

   -2  1 
C         99.24517       13.43069       -6.33959
C        100.72370       13.69299       -6.23957
O        101.16227       14.26762       -5.25397
H         98.68563       14.38829       -6.33763
H         98.99173       12.87865       -7.27074
H         98.91743       12.81275       -5.47690
N        101.55862       13.27199       -7.22795
C        103.01014       13.41094       -7.18371
C        103.46957       14.86487       -7.15559
O        102.95129       15.68720       -7.89694
C        103.63687       12.67511       -8.37940
C        105.13246       12.71492       -8.31149
O        105.77816       13.16983       -9.24152
O        105.76396       12.27511       -7.20591
H        101.14112       12.78139       -8.03460
H        103.37632       12.89326       -6.26782
H        103.28338       13.11557       -9.33704
H        103.32246       11.61015       -8.34454
N        104.50605       15.21316       -6.33958
C        105.05691       16.55368       -6.18922
C        106.54933       16.61148       -6.53685
O        107.15961       17.63730       -6.26637
C        104.85647       16.97866       -4.72744
H        104.93944       14.47213       -5.77725
H        104.51687       17.28844       -6.82475
H        105.41524       16.30895       -4.04100
H        105.21456       18.01774       -4.56669
H        103.77795       16.94089       -4.46413
N        107.20720       15.57937       -7.15138
C        108.64942       15.59388       -7.40383
C        109.08622       14.57175       -8.46106
O        109.74043       14.99159       -9.40632
C        109.46138       15.48891       -6.08410
C        109.12926       14.33908       -5.17477
O        108.17459       13.45349       -5.48380
O        109.70621       14.23589       -4.10432
H        106.67043       14.76378       -7.46083
H        108.92276       16.58073       -7.84358
H        109.27694       16.40625       -5.48661
H        110.54581       15.45938       -6.32525
N        108.76999       13.24377       -8.40117
C        109.20086       12.26596       -9.39046
C        110.00349       11.12539       -8.78848
O        110.40896       10.25840       -9.54989
H        108.16709       12.89279       -7.65672
H        109.82712       12.73775      -10.17790
H        108.30157       11.84414       -9.88663
N        110.30178       11.05319       -7.45522
C        111.15514       10.00346       -6.89584
C        110.59393        8.58673       -7.04355
O        111.36712        7.64942       -6.90399
C        111.50382       10.29903       -5.41730
C        110.31368       10.33329       -4.48652
N        110.49406       10.54965       -3.16591
O        109.18356       10.17146       -4.91491
H        109.97703       11.80044       -6.82676
H        112.10890       10.03714       -7.46812
H        112.01093       11.28663       -5.35900
H        112.21338        9.52555       -5.05344
H        111.43613       10.69795       -2.77778
H        109.68564       10.56030       -2.53010
N        109.27478        8.34758       -7.29531
C        108.72045        7.01942       -7.52937
C        107.75097        6.56107       -6.45654
O        107.11403        5.53860       -6.66793
H        108.62475        9.14080       -7.33540
H        109.51304        6.24414       -7.60926
H        108.19104        7.05043       -8.50539
N        107.63227        7.20476       -5.25935
C        106.76828        6.74545       -4.17354
C        105.83701        7.84976       -3.68975
O        105.97637        8.99412       -4.09802
C        107.65411        6.24701       -2.99473
C        108.41413        4.97343       -3.37357
O        108.58810        7.22802       -2.61462
H        108.22969        8.01574       -5.07264
H        106.12073        5.90728       -4.51213
H        107.02723        5.97195       -2.11705
H        108.08460        7.97133       -2.19326
H        107.69715        4.16610       -3.63640
H        109.09176        5.15133       -4.23456
H        109.02418        4.62804       -2.51134
N        104.88610        7.55750       -2.75439
C        104.09531        8.55688       -2.04667
C        104.85875        8.95991       -0.80361
O        105.32971        8.10762       -0.06226
C        102.65085        8.03850       -1.72932
C        101.79537        8.10508       -3.02443
C        101.98401        8.85828       -0.59837
C        100.34598        7.63572       -2.86260
H        104.83809        6.58868       -2.40356
H        103.98174        9.47769       -2.65844
H        102.71137        6.99211       -1.35598
H        102.27541        7.48455       -3.81028
H        101.76188        9.15780       -3.38624
H        100.98877        8.45037       -0.33394
H        102.57321        8.78178        0.33940
H        101.88382        9.92624       -0.87923
H         99.78348        8.28111       -2.15631
H         99.82558        7.71090       -3.84071
H        100.31230        6.58357       -2.51408
N        104.94552       10.28136       -0.49357
C        105.63005       10.82120        0.66717
C        104.60594       11.27942        1.68041
O        103.41208       11.14959        1.43836
C        106.49855       12.01505        0.22762
C        107.48047       11.65148       -0.84012
O        107.02687       11.08435       -1.97121
O        108.65040       11.98465       -0.74297
H        104.45766       10.95571       -1.09813
H        106.26323       10.04455        1.14931
H        107.03400       12.47517        1.08426
H        105.82549       12.78984       -0.20535
N        105.00515       11.79592        2.86940
C        104.07534       12.17999        3.91794
C        103.10489       13.28628        3.49636
O        101.91492       13.05070        3.63092
C        104.83336       12.53112        5.20961
C        103.88037       12.88893        6.32366
C        102.87401       11.99024        6.72818
C        103.97987       14.13702        6.95748
C        101.97567       12.34546        7.73546
C        103.08595       14.48278        7.97385
C        102.08164       13.59038        8.35883
H        106.01887       11.86842        3.05549
H        103.46785       11.27792        4.15161
H        105.54528       13.36089        5.01961
H        105.43086       11.64582        5.51946
H        102.77043       11.02022        6.25953
H        104.74802       14.84224        6.66497
H        101.19607       11.65469        8.02971
H        103.16979       15.44552        8.45936
H        101.38524       13.86296        9.14000
N        103.48648       14.50188        2.98876
C        102.52693       15.52576        2.58870
C        101.65768       15.05502        1.43292
O        100.46671       15.33925        1.44690
C        103.40997       16.73675        2.25699
C        104.69970       16.10731        1.78507
C        104.85070       14.93327        2.75303
H        101.85736       15.83387        3.42307
H        102.95230       17.49389        1.58359
H        103.65962       17.24240        3.21798
H        104.52576       15.71705        0.76140
H        105.57655       16.78772        1.74191
H        105.49144       14.17481        2.26432
H        105.28677       15.26251        3.72079
N        102.16373       14.29674        0.42204
C        101.35918       13.83448       -0.70799
C        100.24572       12.89517       -0.26176
O         99.26737       12.76271       -0.98269
C        102.23749       13.10238       -1.73961
C        103.37463       13.99079       -2.27684
C        104.32020       13.24482       -3.16492
O        104.10946       11.95865       -3.49927
O        105.32595       13.80741       -3.55575
H        103.15464       14.02822        0.47203
H        100.90798       14.72596       -1.19858
H        101.61610       12.75128       -2.59326
H        102.66939       12.21593       -1.23622
H        103.99252       14.37807       -1.44518
H        102.95304       14.85898       -2.82703
N        100.35100       12.18001        0.89473
C         99.33813       11.27029        1.38619
H         98.44628       11.23205        0.72819
H         99.76895       10.24978        1.46534
H         99.01786       11.59864        2.39782
H        101.19926       12.26600        1.46164
Ca       107.46413       12.09485       -3.88783
O        106.28844        9.71651       -8.09005
H        106.96876       10.38075       -8.36645
H        106.30501        9.03817       -8.80848
O        104.18014       10.17170       -5.87035
H        103.52644        9.95641       -5.15957
H        103.78045        9.80000       -6.69489

Ca 1.0



