%chk=holoCaM.loop4.water3.frame59.chk
%nprocshared=20
%mem=10GB
%nosave
#b3lyp/svp scf=(tight,noincore,xqc) Test 
#IOP(5/87=12) Density=Current Pop=(MK,readradii) iop(6/33=2) iop(6/42=6)

holoCaM.loop4.water3.frame59 

   -3  1 
C         87.49683        5.98207       24.44175
C         86.49276        6.86714       25.11975
O         85.32460        6.51105       25.12973
H         88.52841        6.37665       24.54710
H         87.46238        4.97717       24.91814
H         87.25113        5.87639       23.36568
N         86.87762        8.01245       25.75645
C         85.98536        8.72526       26.66248
C         86.34918       10.20155       26.79501
O         87.50072       10.50326       27.07687
C         86.08635        8.02962       28.02881
C         85.20367        8.67078       29.04451
O         84.00323        8.76037       28.84359
O         85.74120        9.15456       30.18004
H         87.88590        8.22811       25.79350
H         84.93136        8.64007       26.31608
H         87.13801        8.05283       28.39022
H         85.77989        6.96724       27.92355
N         85.38369       11.16917       26.68713
C         85.64189       12.59800       26.89321
C         84.92169       13.17641       28.11969
O         85.22381       14.31616       28.44725
C         85.26631       13.44138       25.62801
C         83.75418       13.33685       25.28932
C         86.13785       13.03377       24.42833
C         83.26983       14.31951       24.22443
H         84.42126       10.87261       26.48496
H         86.72504       12.74926       27.09355
H         85.49340       14.50614       25.85936
H         83.14777       13.53774       26.19744
H         83.53447       12.31925       24.93436
H         85.94350       11.97948       24.13773
H         85.94404       13.68478       23.55196
H         87.21198       13.14379       24.68530
H         83.43341       15.36393       24.56268
H         83.78082       14.15631       23.25673
H         82.18006       14.16971       24.06066
N         83.92834       12.51989       28.79956
C         83.15257       13.16532       29.87112
C         82.99163       12.33934       31.15430
O         82.45789       12.88177       32.11248
C         81.77492       13.57986       29.31874
C         81.05838       12.43369       28.67445
O         80.81527       11.31625       29.37367
O         80.72692       12.50000       27.50239
H         83.62500       11.59407       28.46827
H         83.65370       14.10376       30.19329
H         81.91747       14.37563       28.55527
H         81.14796       14.00281       30.13323
N         83.41521       11.05140       31.27044
C         83.30989       10.28013       32.50520
C         81.87352       10.04542       32.92783
O         81.48726       10.47813       34.00461
H         83.85423       10.60454       30.46529
H         83.87022       10.80641       33.30806
H         83.78597        9.28577       32.35845
N         81.03437        9.34133       32.12008
C         79.62825        9.05431       32.42019
C         79.31170        7.55947       32.46663
O         78.14417        7.22675       32.61528
C         78.70715        9.75852       31.40016
C         78.91825        9.36428       29.96580
O         79.89655        8.49424       29.61826
O         78.25070        9.90688       29.10658
H         81.43359        9.00675       31.23534
H         79.34971        9.46873       33.41466
H         78.87809       10.85533       31.47944
H         77.64459        9.56964       31.66898
N         80.28030        6.59795       32.40728
C         79.96523        5.18184       32.53601
C         79.35127        4.54536       31.29613
O         78.88815        3.42033       31.41674
H         81.27014        6.87240       32.38592
H         79.28772        5.05187       33.40983
H         80.89095        4.61201       32.76510
N         79.38307        5.13840       30.06339
C         78.84592        4.49797       28.85384
C         79.28451        5.21669       27.57941
O         79.28699        6.43751       27.54443
C         77.31235        4.37048       28.89058
C         76.59774        5.72669       29.00080
C         75.09637        5.60330       28.95934
N         74.33516        6.71626       29.05191
O         74.55820        4.51222       28.83348
H         79.85878        6.04470       29.97430
H         79.25917        3.46558       28.79586
H         77.00882        3.73122       29.74627
H         76.99191        3.85513       27.95681
H         76.89367        6.38154       28.15644
H         76.89298        6.21497       29.95413
H         74.77403        7.64302       29.15661
H         73.30745        6.65210       29.01785
N         79.71601        4.50066       26.50033
C         80.36326        5.11933       25.34401
C         79.38185        5.80220       24.38584
O         78.52808        5.13726       23.81664
C         81.30448        4.08920       24.64649
C         80.57795        2.95118       23.90564
C         82.28027        4.79194       23.69516
H         79.71100        3.47243       26.57748
H         81.05394        5.88545       25.75401
H         81.92291        3.62655       25.44935
H         79.88429        2.40325       24.57482
H         80.01141        3.33372       23.03240
H         81.32314        2.22089       23.52342
H         82.85673        5.56343       24.24778
H         83.00642        4.05982       23.28283
H         81.74012        5.27664       22.85727
N         79.46741        7.14605       24.15404
C         78.60984        7.87140       23.21183
C         78.90822        7.47597       21.76868
O         79.87333        6.76905       21.51493
C         78.84224        9.39463       23.39262
C         77.91812       10.30909       22.62958
N         76.58322       10.28084       22.84176
O         78.38116       11.10718       21.83129
H         80.16032        7.68052       24.69186
H         77.55380        7.63315       23.46357
H         79.89641        9.62815       23.13642
H         78.68696        9.63971       24.44786
H         76.17082        9.62887       23.52340
H         75.96182       10.92083       22.32531
N         78.10029        7.91661       20.76392
C         78.33581        7.65169       19.35001
C         79.64367        8.27093       18.87966
O         80.42647        7.55974       18.26630
C         77.09696        8.04626       18.50539
C         76.64470        9.48862       18.57630
C         77.33605       10.50468       17.89685
C         75.48262        9.82002       19.29770
C         76.88081       11.82651       17.94832
C         75.03273       11.14075       19.35274
C         75.72686       12.14823       18.67815
O         75.27182       13.41613       18.73188
H         77.25851        8.44773       21.02067
H         78.41582        6.54965       19.20559
H         76.27152        7.40610       18.89027
H         77.23649        7.75806       17.44107
H         78.21790       10.27411       17.31406
H         74.92397        9.05619       19.82482
H         77.42135       12.59800       17.41509
H         74.13938       11.37887       19.91677
H         75.71339       14.14192       18.26872
N         79.97297        9.56890       19.15153
C         81.25058       10.15234       18.74561
C         82.40995        9.42922       19.41693
O         83.36963        9.08023       18.74402
C         81.31211       11.68457       18.99655
C         81.47977       12.13777       20.45658
C         81.49858       13.63853       20.54013
O         80.41701       14.35023       20.16977
O         82.49274       14.22095       20.94298
H         79.30125       10.15443       19.66571
H         81.33591       10.05212       17.63964
H         80.39981       12.14466       18.55511
H         82.18958       12.08400       18.43968
H         82.44457       11.75188       20.85158
H         80.65919       11.75566       21.08939
N         82.36300        9.15611       20.75551
C         83.45055        8.52175       21.50226
C         83.76188        7.11028       21.01674
O         84.79226        6.58217       21.41055
C         83.09885        8.42943       23.00875
C         82.86365        9.79179       23.67858
C         82.34314        9.67023       25.08913
O         82.21382        8.47502       25.70718
O         81.98372       10.66746       25.68284
H         81.51003        9.43225       21.26088
H         84.36144        9.14788       21.36986
H         83.91630        7.91774       23.55628
H         82.17445        7.81768       23.10000
H         82.10109       10.36314       23.11771
H         83.80475       10.38178       23.66550
N         82.90807        6.42090       20.20770
C         83.15443        5.07337       19.73854
H         84.13233        4.67570       20.08003
H         82.35094        4.40485       20.11322
H         83.13887        5.06510       18.62850
H         82.02056        6.84612       19.92581
Ca        81.11051        8.47827       27.69158
O         82.56482        6.65714       30.18572
H         82.84367        5.81050       30.61451
H         83.02268        7.35780       30.71290
O         83.01141        5.79841       27.51289
H         83.32496        6.29079       26.71512
H         83.81780        5.33557       27.85096
O         79.20767       10.19887       26.65808
H         78.61623        9.40316       26.68899
H         78.59487       10.97239       26.72278

Ca 1.0



