%chk=holoCaM.loop4.water3.frame233.chk
%nprocshared=20
%mem=10GB
%nosave
#b3lyp/svp scf=(tight,noincore,xqc) Test 
#IOP(5/87=12) Density=Current Pop=(MK,readradii) iop(6/33=2) iop(6/42=6)

holoCaM.loop4.water3.frame233 

   -3  1 
C         41.89354       65.73281       46.15536
C         40.64438       66.45460       45.75242
O         40.64558       67.04861       44.68527
H         42.73254       66.45559       46.23436
H         41.76899       65.21057       47.12536
H         42.14092       64.97984       45.37589
N         39.53523       66.45666       46.55054
C         38.29011       67.10467       46.14926
C         37.27349       67.13477       47.28785
O         36.99940       66.10847       47.89410
C         37.67852       66.39604       44.92236
C         36.48362       67.14662       44.41736
O         35.38988       66.60768       44.37079
O         36.62230       68.42383       44.01288
H         39.58574       65.98659       47.46727
H         38.52526       68.15200       45.86014
H         37.40347       65.35175       45.18552
H         38.40187       66.36025       44.08413
N         36.62223       68.29970       47.56272
C         35.60883       68.48290       48.59670
C         34.25248       68.71667       47.94424
O         33.30422       68.03531       48.30911
C         35.99207       69.70986       49.48917
C         37.32494       69.45480       50.23482
C         34.87426       70.05460       50.49925
C         37.90192       70.71438       50.89158
H         36.83855       69.11509       46.97471
H         35.52546       67.58334       49.24907
H         36.12344       70.58504       48.81329
H         38.08053       69.09773       49.51759
H         37.19452       68.65404       50.99440
H         34.70890       69.21136       51.20279
H         35.12092       70.96546       51.07938
H         33.91887       70.27860       49.98154
H         38.05636       71.50747       50.12832
H         37.24266       71.10452       51.69165
H         38.88438       70.47725       51.35047
N         34.07995       69.70231       47.01527
C         32.76971       70.14099       46.53372
C         32.50112       69.85553       45.05964
O         31.40322       70.16143       44.61296
C         32.60032       71.64482       46.85844
C         33.58342       72.57722       46.18354
O         34.44227       72.16471       45.42134
O         33.51420       73.89711       46.43549
H         34.91254       70.20999       46.69217
H         31.96944       69.59868       47.08401
H         32.71080       71.77421       47.95688
H         31.57430       71.96555       46.57926
N         33.40723       69.23833       44.24974
C         33.10485       68.86789       42.87099
C         32.90381       70.03712       41.92034
O         32.51881       69.78565       40.78702
H         34.31174       68.95579       44.63983
H         32.18215       68.24549       42.87761
H         33.92623       68.24206       42.46135
N         33.13306       71.33111       42.28827
C         32.86330       72.46933       41.40918
C         33.69003       72.49911       40.12375
O         33.34144       73.27229       39.24191
C         33.02170       73.81144       42.16910
C         34.38247       74.06797       42.77330
O         35.26311       73.22473       42.74841
O         34.61448       75.24007       43.39241
H         33.45989       71.51859       43.24172
H         31.79698       72.39029       41.10202
H         32.28642       73.84437       43.00046
H         32.78628       74.64312       41.47117
N         34.80792       71.74066       39.95371
C         35.61644       71.76027       38.74160
C         36.96835       72.40595       38.96763
O         37.81396       72.29384       38.09154
H         35.13406       71.14689       40.72681
H         35.12395       72.30697       37.90772
H         35.75118       70.70805       38.41005
N         37.22700       73.14794       40.08537
C         38.49946       73.80154       40.35881
C         39.04810       73.33740       41.72752
O         38.85578       71.95773       41.85195
C         38.30006       75.33050       40.36664
C         37.88209       75.86466       38.99216
C         37.76449       77.36675       39.02684
N         36.59150       77.97808       38.74488
O         38.74394       78.04144       39.31008
H         36.48275       73.29051       40.77082
H         39.24692       73.53222       39.57893
H         39.24483       75.83741       40.64201
H         37.53244       75.60042       41.12678
H         36.91577       75.40661       38.69030
H         38.65070       75.58921       38.23755
H         35.75389       77.43059       38.50078
H         36.52139       79.00610       38.77134
N         40.48652       73.64529       41.81906
C         41.17151       73.26410       43.06816
C         41.20990       74.42578       44.06426
O         41.63321       75.51221       43.69136
C         42.62207       72.82369       42.72000
C         43.35646       72.28784       43.96237
C         42.63339       71.73574       41.63254
H         40.74843       74.61001       41.52174
H         40.67716       72.38134       43.51735
H         43.18261       73.69823       42.32158
H         42.82496       71.40561       44.38186
H         44.39104       71.98311       43.69787
H         43.42950       73.06627       44.74604
H         42.09315       70.83212       41.97422
H         42.15978       72.10175       40.69744
H         43.67796       71.45049       41.38599
N         40.88309       74.23346       45.37520
C         41.01480       75.25970       46.41152
C         42.19368       74.91368       47.32181
O         42.82373       73.88575       47.12182
C         39.66430       75.35558       47.16885
C         39.60358       76.37149       48.28382
N         39.78565       77.69057       48.03869
O         39.38198       75.99612       49.42594
H         40.59939       73.28927       45.67528
H         41.24731       76.24675       45.95561
H         39.42698       74.35231       47.58920
H         38.87359       75.62657       46.44061
H         39.97257       78.03032       47.08480
H         39.74841       78.37402       48.81017
N         42.57921       75.75471       48.32010
C         43.69650       75.51276       49.22824
C         43.50759       74.21900       50.00771
O         44.39921       73.38277       49.99606
C         43.80244       76.69845       50.21631
C         44.98256       76.60264       51.14988
C         46.29228       76.70846       50.65353
C         44.78179       76.43390       52.52996
C         47.38346       76.65507       51.52632
C         45.87402       76.37217       53.39935
C         47.17953       76.48757       52.90033
O         48.24161       76.44307       53.72958
H         42.06720       76.63811       48.43326
H         44.63749       75.45633       48.63579
H         42.85752       76.75124       50.80083
H         43.88940       77.65485       49.65571
H         46.46774       76.84914       49.59421
H         43.78056       76.34831       52.93419
H         48.38842       76.75017       51.13456
H         45.70356       76.24037       54.46036
H         48.14256       76.33630       54.68649
N         42.36564       74.00510       50.72492
C         42.14230       72.83217       51.57638
C         42.05997       71.50848       50.81171
O         41.92925       70.47884       51.46169
C         40.87375       73.02768       52.43754
C         41.01462       74.23341       53.38657
C         39.81245       74.36947       54.27318
O         39.14058       75.38816       54.24596
O         39.48216       73.37632       55.12082
H         41.64312       74.73794       50.69342
H         43.00034       72.74708       52.27998
H         40.72370       72.12028       53.06383
H         39.98329       73.15206       51.78180
H         41.14592       75.17229       52.80853
H         41.91029       74.09823       54.03072
N         42.19042       71.43746       49.45836
C         42.27572       70.18996       48.71449
C         43.73378       69.93796       48.37689
O         44.26063       68.90003       48.75098
C         41.48218       70.29543       47.40719
C         39.97343       70.53821       47.56902
C         39.36045       70.79907       46.21930
O         38.06721       71.12323       46.05647
O         40.06179       70.76287       45.22441
H         42.33283       72.29761       48.92293
H         41.89360       69.32973       49.30999
H         41.62838       69.36627       46.81043
H         41.89912       71.14928       46.82971
H         39.79848       71.42938       48.20798
H         39.50841       69.64785       48.02482
N         44.45449       70.86036       47.67684
C         45.84679       70.67448       47.34237
H         46.44610       70.55951       48.26963
H         45.96598       69.77820       46.69899
H         46.21887       71.56352       46.78800
H         44.01007       71.73533       47.37354
Ca        37.83979       71.69707       43.88166
O         37.01110       69.57566       41.45683
H         37.90351       69.22381       41.21922
H         36.38319       69.03255       40.91827
O         39.98790       69.22424       42.94543
H         40.12089       69.49348       42.00375
H         40.88486       69.31770       43.35390
O         37.20851       73.97544       45.59047
H         36.63648       73.64825       46.32849
H         36.57872       74.36346       44.93488

Ca 1.0



