%chk=holoCaM.loop4.water3.frame486.chk
%nprocshared=20
%mem=10GB
%nosave
#b3lyp/svp scf=(tight,noincore,xqc) Test 
#IOP(5/87=12) Density=Current Pop=(MK,readradii) iop(6/33=2) iop(6/42=6)

holoCaM.loop4.water3.frame486 

   -3  1 
C         16.25322       61.48548       54.97179
C         16.70524       60.09007       54.66454
O         16.26746       59.55597       53.65765
H         15.14902       61.50027       55.08769
H         16.71925       61.87133       55.90114
H         16.53460       62.15255       54.12893
N         17.57542       59.43010       55.48557
C         18.05990       58.07724       55.20677
C         18.90553       57.56445       56.36205
O         19.74277       58.30524       56.86252
C         18.91822       58.04880       53.92140
C         19.07534       56.66906       53.32662
O         19.73815       56.54731       52.31114
O         18.37094       55.60854       53.78550
H         17.88550       59.90979       56.34481
H         17.16916       57.42456       55.07081
H         19.90785       58.51472       54.12188
H         18.44040       58.64164       53.11751
N         18.78977       56.27801       56.78743
C         19.55133       55.72495       57.89991
C         20.61750       54.76828       57.38686
O         21.75989       54.89561       57.80403
C         18.60733       54.98352       58.89824
C         17.42090       55.88160       59.33556
C         19.41052       54.49728       60.12657
C         16.39244       55.14664       60.20239
H         18.13984       55.65432       56.29033
H         20.06108       56.53794       58.46727
H         18.18492       54.09568       58.37747
H         16.87733       56.22555       58.43213
H         17.79055       56.77958       59.87563
H         20.25114       53.83981       59.82415
H         19.82466       55.36433       60.68594
H         18.78390       53.89559       60.81309
H         15.53269       55.81765       60.40846
H         16.01504       54.24530       59.67289
H         16.82087       54.84504       61.17900
N         20.30654       53.76042       56.51795
C         21.22521       52.66367       56.20730
C         21.78664       52.66617       54.79149
O         22.62262       51.81431       54.51723
C         20.52475       51.32443       56.53462
C         19.31287       51.00781       55.68385
O         18.95525       51.74331       54.77681
O         18.61399       49.88427       55.92943
H         19.35589       53.73028       56.12727
H         22.11776       52.73688       56.86634
H         20.20270       51.35648       57.59827
H         21.24917       50.49026       56.42182
N         21.42990       53.58307       53.84991
C         22.05196       53.62891       52.53343
C         21.83134       52.36031       51.74026
O         22.79958       51.71730       51.36085
H         20.72725       54.30087       54.07584
H         23.14283       53.81085       52.65451
H         21.62974       54.47827       51.95489
N         20.56924       51.96182       51.43220
C         20.25589       50.79331       50.61134
C         19.52615       51.19758       49.33466
O         19.01147       50.32622       48.64611
C         19.46889       49.74109       51.43610
C         18.15430       50.16107       52.04548
O         17.73399       51.30009       51.95299
O         17.43633       49.25347       52.73282
H         19.79100       52.54246       51.77620
H         21.18064       50.27035       50.28191
H         20.11964       49.39487       52.26685
H         19.27196       48.86527       50.77960
N         19.47736       52.49941       48.92533
C         18.75986       52.94056       47.74161
C         17.25137       52.88390       47.89725
O         16.57371       53.26000       46.95160
H         20.00250       53.21552       49.44358
H         19.08785       52.34760       46.86070
H         19.01726       54.00485       47.54546
N         16.64828       52.45607       49.04830
C         15.20527       52.43113       49.24259
C         14.81698       53.30167       50.46422
O         15.58492       54.47217       50.44482
C         14.72707       50.97741       49.44007
C         15.04085       50.10645       48.21458
C         14.44296       48.73017       48.35251
N         14.81895       47.90185       49.35439
O         13.60600       48.35738       47.54374
H         17.22013       52.14613       49.83489
H         14.69574       52.85325       48.34795
H         13.62873       50.96249       49.59146
H         15.20560       50.54567       50.34692
H         16.13944       50.01791       48.07323
H         14.61036       50.59412       47.31194
H         15.52685       48.19116       50.04430
H         14.39937       46.96390       49.43877
N         13.39490       53.67292       50.37412
C         12.83496       54.32889       51.56917
C         12.07317       53.33620       52.44084
O         11.19923       52.64089       51.94094
C         11.92007       55.51642       51.14131
C         12.71835       56.54234       50.32249
C         10.67685       55.09946       50.33641
H         12.76891       52.91860       50.01459
H         13.65020       54.79006       52.17388
H         11.56759       56.02696       52.06637
H         13.08694       56.09721       49.37350
H         12.08429       57.42062       50.07832
H         13.58497       56.90660       50.90120
H         10.08437       55.99914       50.06586
H         10.96506       54.57061       49.40384
H         10.00423       54.45470       50.93418
N         12.31915       53.25693       53.77600
C         11.49937       52.45405       54.67681
C         10.29798       53.27652       55.13625
O         10.20414       54.44957       54.80495
C         12.39333       51.98340       55.85360
C         11.74971       51.03040       56.83031
N         11.26996       49.83323       56.42218
O         11.68937       51.33004       58.01275
H         13.01419       53.89508       54.18540
H         11.12290       51.56036       54.13310
H         12.76225       52.87854       56.40228
H         13.27282       51.45668       55.43369
H         11.32383       49.55024       55.43383
H         10.84623       49.18402       57.10134
N          9.31464       52.70164       55.87868
C          8.19742       53.43876       56.47063
C          8.68802       54.41329       57.53651
O          8.19488       55.53224       57.57206
C          7.08188       52.47211       56.95179
C          7.55818       51.28515       57.76034
C          7.56201       50.01026       57.16089
C          8.00998       51.41778       59.08042
C          8.03383       48.89819       57.85607
C          8.47737       50.29743       59.77995
C          8.49827       49.03599       59.16492
O          8.96272       47.95192       59.81746
H          9.37460       51.68883       56.03165
H          7.69586       54.04794       55.68307
H          6.63166       52.07343       56.01520
H          6.26491       53.01494       57.47534
H          7.22054       49.87749       56.14125
H          8.00005       52.38328       59.56729
H          8.04628       47.93034       57.37025
H          8.82867       50.40992       60.79721
H          9.30704       48.00183       60.71995
N          9.70203       54.09172       58.39407
C         10.26630       55.04068       59.35882
C         11.00922       56.20295       58.68722
O         11.41712       57.11178       59.39401
C         11.27578       54.34064       60.30872
C         10.69672       53.18515       61.14498
C          9.65561       53.59510       62.15519
O          9.14132       52.74147       62.85935
O          9.30080       54.88399       62.32234
H         10.08539       53.14077       58.34686
H          9.42956       55.46145       59.95346
H         11.71562       55.08173       61.01241
H         12.10525       53.93255       59.68841
H         11.53281       52.71233       61.70379
H         10.27560       52.41589       60.47300
N         11.24837       56.22594       57.34327
C         11.99459       57.27422       56.65175
C         11.11430       58.02519       55.65716
O         11.61148       58.96435       55.04791
C         13.17164       56.62875       55.88748
C         14.11443       55.82811       56.80419
C         15.16351       55.05801       56.04449
O         16.01756       54.26676       56.71781
O         15.23089       55.10539       54.82739
H         10.92503       55.44586       56.77375
H         12.38638       58.01839       57.37837
H         13.75891       57.40770       55.35154
H         12.73857       55.94268       55.12954
H         13.52979       55.08158       57.37982
H         14.60735       56.52115       57.51817
N          9.81388       57.67850       55.42758
C          8.94955       58.36075       54.48728
H          8.05761       58.74542       55.02499
H          9.45352       59.21194       53.98497
H          8.61426       57.64071       53.71103
H          9.39275       56.88618       55.92400
Ca        16.84845       54.65513       52.36896
O         15.36160       51.58301       53.81798
H         16.21663       51.56185       54.31612
H         14.99777       50.66716       53.91570
O         18.46377       55.23175       49.94491
H         18.10979       56.07625       50.31837
H         18.91736       54.78789       50.70515
O         15.54172       57.20769       52.30596
H         15.50759       57.09720       53.28777
H         16.50310       57.30185       52.09335

Ca 1.0



