%chk=holoCaM-CaMKII.loop2.water2.frame422.chk
%nprocshared=20
%mem=10GB
%nosave
#b3lyp/svp scf=(tight,noincore,xqc) Test 
#IOP(5/87=12) Density=Current Pop=(MK,readradii) iop(6/33=2) iop(6/42=6)

holoCaM-CaMKII.loop2.water2.frame422 

   -2  1 
C         68.71263       81.11920       22.78755
C         70.06312       80.99427       22.14848
O         71.02921       81.51244       22.68804
H         67.93830       80.58063       22.19983
H         68.74809       80.66411       23.80093
H         68.42660       82.18580       22.86798
N         70.21163       80.25933       21.01601
C         71.51009       79.94523       20.44758
C         72.17456       81.14382       19.77861
O         71.61120       81.70807       18.85170
C         71.35207       78.77648       19.45849
C         72.67192       78.22416       19.04933
O         73.68787       78.26190       19.92768
O         72.74963       77.50444       18.06828
H         69.37558       79.80459       20.61678
H         72.14928       79.58179       21.27978
H         70.76008       79.08240       18.57093
H         70.81163       77.94395       19.95970
N         73.41460       81.54162       20.18316
C         74.18007       82.63730       19.59752
C         75.47481       82.14237       18.93759
O         76.24748       82.97244       18.47889
C         74.47419       83.65075       20.71325
H         73.86043       81.02624       20.95225
H         73.59907       83.15898       18.80791
H         73.51563       84.04116       21.11982
H         75.03635       83.17372       21.54606
H         75.06194       84.51180       20.33135
N         75.77726       80.81219       18.85222
C         77.00910       80.27146       18.27906
C         76.74068       79.16298       17.25086
O         77.29631       79.25786       16.16536
C         77.99574       79.90037       19.41273
C         77.46506       79.07658       20.54239
O         78.07944       79.05150       21.59678
O         76.28261       78.46108       20.47603
H         75.12568       80.14056       19.26280
H         77.56754       81.06491       17.73255
H         78.27520       80.86797       19.88355
H         78.93388       79.44945       19.01899
N         75.92490       78.09136       17.50019
C         75.69757       77.00080       16.55672
C         76.26921       75.68306       17.05247
O         76.46773       74.80287       16.22715
H         75.43448       78.03267       18.38747
H         76.20640       77.22282       15.59599
H         74.61699       76.89107       16.32108
N         76.61310       75.48041       18.35918
C         77.47218       74.37818       18.78606
C         76.73370       73.12731       19.25226
O         77.40515       72.17042       19.61189
C         78.50748       74.91716       19.80124
C         77.95755       75.36147       21.12635
N         78.78155       75.94311       22.02210
O         76.78113       75.20265       21.40270
H         76.41538       76.21715       19.04750
H         78.08357       74.05410       17.91784
H         79.00474       75.79685       19.33495
H         79.27929       74.14749       20.00407
H         79.77612       76.10274       21.80796
H         78.41887       76.24355       22.92853
N         75.37326       73.03901       19.25911
C         74.64742       71.82720       19.61049
C         74.01088       71.90290       20.97665
O         73.13201       71.09725       21.24979
H         74.81078       73.84465       18.97047
H         75.30277       70.92989       19.61341
H         73.87397       71.65041       18.83179
N         74.50386       72.73745       21.93647
C         74.03801       72.73402       23.31634
C         73.69780       74.12168       23.81451
O         74.01266       75.11148       23.17051
C         75.13803       72.12676       24.23615
C         75.30872       70.63436       23.96181
O         76.39387       72.74838       24.06715
H         75.30411       73.33622       21.70821
H         73.10915       72.12954       23.41195
H         74.82517       72.21779       25.29867
H         76.26593       73.72364       23.94441
H         76.01277       70.20201       24.70411
H         74.33340       70.11204       24.06061
H         75.71511       70.46293       22.94288
N         73.07728       74.24773       25.01903
C         72.86782       75.52202       25.68082
C         74.13566       75.85074       26.45063
O         74.61750       75.00873       27.19832
C         71.63540       75.46966       26.63523
C         70.36312       75.00204       25.87943
C         71.40288       76.86886       27.24425
C         69.15113       74.79677       26.79459
H         72.82376       73.38985       25.53391
H         72.64242       76.30844       24.92546
H         71.84762       74.74216       27.45086
H         70.55434       74.02130       25.39619
H         70.10666       75.73311       25.08203
H         71.18610       77.60605       26.44018
H         70.56967       76.88046       27.97043
H         72.29277       77.20451       27.80065
H         69.38153       74.03477       27.56982
H         68.83598       75.73658       27.28878
H         68.29128       74.43763       26.19176
N         74.69463       77.08452       26.35951
C         75.86099       77.50778       27.12526
C         75.39940       78.31646       28.29425
O         74.20787       78.53938       28.42065
C         76.78363       78.35925       26.23900
C         77.29841       77.53577       25.11648
O         76.43172       76.82555       24.36772
O         78.50129       77.43507       24.93960
H         74.20625       77.79617       25.80369
H         76.41752       76.63186       27.52720
H         77.64557       78.76196       26.81538
H         76.21245       79.22147       25.82538
N         76.26941       78.76570       29.22752
C         75.82920       79.56235       30.35707
C         75.25813       80.90964       29.89763
O         74.19498       81.25801       30.38676
C         76.95461       79.75011       31.38237
C         76.41529       80.40379       32.62600
C         75.60259       79.67880       33.51751
C         76.70205       81.74944       32.89213
C         75.09647       80.29486       34.66518
C         76.18104       82.36559       34.03165
C         75.38323       81.63865       34.92020
H         77.26689       78.50875       29.14340
H         75.02824       78.99043       30.88310
H         77.76749       80.35670       30.94388
H         77.39330       78.76684       31.66367
H         75.36998       78.63685       33.32943
H         77.31103       82.32385       32.20531
H         74.48032       79.73184       35.35489
H         76.39540       83.40799       34.22300
H         74.98568       82.11762       35.80478
N         75.85508       81.71353       28.94682
C         75.30851       83.00410       28.51988
C         73.95081       82.91540       27.82469
O         73.39872       83.94602       27.46473
C         76.37334       83.55627       27.55550
C         77.63926       82.87279       28.04836
C         77.11960       81.46787       28.29267
H         75.24745       83.64821       29.42385
H         76.18941       83.15861       26.52952
H         76.41805       84.66494       27.49563
H         78.49638       82.92430       27.34339
H         77.93764       83.31080       29.02737
H         76.91310       80.99849       27.30571
H         77.83885       80.84580       28.85014
N         73.36938       81.70608       27.59188
C         72.10148       81.47924       26.91991
C         71.08996       80.87883       27.89797
O         69.90094       81.10480       27.72721
C         72.35514       80.50731       25.74770
C         73.47955       81.01205       24.81479
C         73.91373       79.99118       23.80891
O         74.81793       80.25416       23.03514
O         73.37271       78.76542       23.79302
H         73.88097       80.86283       27.85244
H         71.68771       82.43489       26.52794
H         71.41923       80.33622       25.17017
H         72.67203       79.53616       26.18284
H         74.39275       81.23936       25.40246
H         73.14772       81.93684       24.29919
N         71.48815       80.08012       28.93261
C         70.59281       79.50863       29.91016
H         69.74751       78.99148       29.41431
H         71.14878       78.76112       30.52112
H         70.22833       80.30373       30.59269
H         72.47215       79.85577       29.06091
Ca        75.74448       77.48640       22.36847
O         73.81711       75.56060       20.44920
H         74.04277       75.82151       19.52287
H         73.08985       74.89769       20.34790
O         72.04459       77.08570       22.24232
H         71.51521       77.83484       22.61271
H         71.36156       76.45263       21.91692

Ca 1.0



