%chk=holoCaM-CaMKII.loop4.water2.frame27.chk
%nprocshared=20
%mem=10GB
%nosave
#b3lyp/svp scf=(tight,noincore,xqc) Test 
#IOP(5/87=12) Density=Current Pop=(MK,readradii) iop(6/33=2) iop(6/42=6)

holoCaM-CaMKII.loop4.water2.frame27 

   -3  1 
C         29.46556       60.04155       43.24633
C         28.27328       60.59894       43.96229
O         28.41247       61.59234       44.66101
H         30.22440       59.72810       43.99240
H         29.19039       59.16250       42.62429
H         29.89596       60.82138       42.58302
N         27.05142       60.02104       43.81590
C         25.85808       60.53982       44.46486
C         25.94094       60.29220       45.96821
O         26.12374       59.14435       46.35046
C         24.61742       59.88201       43.84296
C         23.33443       60.54807       44.22789
O         23.30713       61.65593       44.99152
O         22.29509       60.09824       43.79176
H         26.96311       59.20275       43.19214
H         25.77912       61.60950       44.21896
H         24.58194       58.80374       44.10634
H         24.68314       59.97313       42.73519
N         25.80240       61.30443       46.87895
C         25.94078       61.09716       48.32512
C         24.58656       61.02309       49.02650
O         24.56524       60.71591       50.21017
C         26.85462       62.19693       48.97460
C         26.14252       63.58217       49.04043
C         28.20560       62.28701       48.24060
C         26.97543       64.69149       49.69009
H         25.56100       62.24325       46.53885
H         26.42151       60.10910       48.49837
H         27.06460       61.88756       50.02397
H         25.22021       63.48002       49.65206
H         25.84487       63.92299       48.02972
H         28.70242       61.29529       48.21991
H         28.06358       62.64933       47.20042
H         28.89662       62.98292       48.76002
H         27.29049       64.39923       50.71422
H         27.86926       64.93258       49.07976
H         26.36551       65.61761       49.75612
N         23.42717       61.34218       48.37963
C         22.11589       61.40500       49.02528
C         21.02708       60.63509       48.27146
O         19.90100       60.61955       48.74775
C         21.74658       62.88924       49.18622
C         21.75773       63.60019       47.86754
O         20.84767       63.44520       47.07178
O         22.85830       64.28097       47.50217
H         23.48316       61.66461       47.40842
H         22.16936       60.97394       50.04834
H         22.52973       63.34788       49.82980
H         20.77266       63.03475       49.70150
N         21.27580       59.95789       47.11497
C         20.28047       59.15622       46.41771
C         19.12823       59.94301       45.81921
O         17.98074       59.60468       46.06864
H         22.22753       59.94605       46.72561
H         19.90040       58.36180       47.09427
H         20.78473       58.65011       45.56499
N         19.37757       60.94473       44.93547
C         18.37316       61.58253       44.08060
C         18.69997       61.33139       42.60537
O         18.07657       61.93254       41.74145
C         18.23010       63.08317       44.42825
C         19.48313       63.92329       44.40257
O         19.42109       65.07426       44.80128
O         20.67920       63.41884       44.04260
H         20.35903       61.21510       44.80283
H         17.36351       61.14596       44.24729
H         17.83334       63.12941       45.46624
H         17.46678       63.54967       43.76546
N         19.64285       60.40983       42.24846
C         20.04434       60.10562       40.89026
C         20.63560       61.30484       40.20511
O         20.20424       61.62863       39.10908
H         20.10609       59.85330       42.97327
H         19.19246       59.69121       40.31064
H         20.83934       59.32618       40.93247
N         21.65512       61.99134       40.79476
C         22.36821       63.10031       40.16075
C         23.52649       63.59671       41.02437
O         23.63071       63.24836       42.19198
C         21.42739       64.27348       39.76447
C         20.61507       64.83386       40.94646
C         19.67080       65.94861       40.54761
N         18.85018       66.50121       41.47164
O         19.63245       66.35285       39.39407
H         21.95899       61.66574       41.72294
H         22.82971       62.69337       39.23449
H         20.71067       63.93279       38.99084
H         22.02529       65.08475       39.29537
H         21.30790       65.21337       41.72483
H         20.00285       64.01409       41.37672
H         18.85379       66.16892       42.44556
H         18.19938       67.25816       41.21360
N         24.48341       64.38237       40.45967
C         25.66000       64.87760       41.16401
C         25.67608       66.38673       41.00720
O         25.71184       66.84900       39.87443
C         26.93480       64.19688       40.56957
C         28.23550       64.68959       41.22131
C         26.86191       62.66755       40.74760
H         24.39835       64.60955       39.45650
H         25.61909       64.62134       42.24290
H         26.99376       64.42387       39.48224
H         29.11333       64.20260       40.74255
H         28.35566       65.78663       41.10931
H         28.25048       64.41635       42.29182
H         25.97556       62.24693       40.23032
H         27.76420       62.18035       40.31901
H         26.80128       62.40325       41.82654
N         25.66141       67.22152       42.09020
C         25.69953       68.67552       41.95309
C         27.11486       69.16834       42.18107
O         27.99948       68.35411       42.35740
C         24.62475       69.36758       42.83643
C         24.96930       69.53396       44.29982
N         24.55503       68.65166       45.23049
O         25.56461       70.53643       44.65800
H         25.69583       66.81976       43.03651
H         25.44043       68.95447       40.90952
H         23.63340       68.88321       42.70932
H         24.47493       70.39869       42.44932
H         24.00835       67.83274       44.95580
H         24.76949       68.80119       46.22875
N         27.40635       70.49215       42.16398
C         28.74760       71.05131       42.35065
C         29.38172       70.58267       43.66979
O         30.46721       70.02250       43.62291
C         28.61120       72.58626       42.29095
C         29.87643       73.38334       42.47526
C         30.86858       73.46594       41.47843
C         30.03285       74.11487       43.66028
C         31.98787       74.29139       41.67242
C         31.15123       74.91905       43.85697
C         32.12986       75.02025       42.86129
O         33.20125       75.81971       43.03699
H         26.62003       71.14064       42.01057
H         29.40281       70.72068       41.51148
H         27.88764       72.86595       43.08758
H         28.15103       72.89356       41.32324
H         30.76648       72.92480       40.54464
H         29.28027       74.06392       44.43655
H         32.74020       74.37744       40.89671
H         31.24499       75.47210       44.78190
H         33.31877       76.34587       43.84197
N         28.75872       70.75446       44.87466
C         29.33080       70.32015       46.15978
C         29.68290       68.84361       46.16336
O         30.62233       68.46064       46.84750
C         28.37525       70.59868       47.34521
C         28.09397       72.09644       47.53377
C         27.11893       72.33327       48.65237
O         26.08006       72.93891       48.43990
O         27.38680       71.89065       49.89569
H         27.84098       71.21133       44.86834
H         30.27668       70.88160       46.32600
H         28.83996       70.21762       48.28548
H         27.42253       70.04475       47.18831
H         27.67231       72.53441       46.60679
H         29.04780       72.61580       47.76420
N         28.96315       67.95279       45.43564
C         29.32289       66.54595       45.32604
C         30.63249       66.40925       44.55146
O         31.55202       65.77718       45.05116
C         28.16050       65.76213       44.68864
C         26.93853       65.77910       45.63176
C         25.77031       65.00781       45.09708
O         25.91447       63.85775       44.73737
O         24.54400       65.56530       45.08760
H         28.13629       68.29455       44.92350
H         29.45968       66.10391       46.33883
H         28.47460       64.70301       44.56073
H         27.90189       66.18778       43.69978
H         26.60835       66.81667       45.85136
H         27.24318       65.31038       46.59012
N         30.80149       67.03384       43.35124
C         32.02529       67.02668       42.57519
H         32.81408       66.39383       43.02838
H         31.80903       66.65705       41.55048
H         32.41055       68.06751       42.49197
H         30.03658       67.59100       42.97396
Ca        22.58527       64.53007       44.57932
O         21.76167       67.19274       43.67031
H         20.85121       66.82025       43.58630
H         21.72754       67.71635       44.50830
O         22.36646       66.84959       46.93833
H         21.78427       67.59713       47.21916
H         23.06073       66.79456       47.64252

Ca 1.0



