%chk=holoCaM-CaMKII.loop4.water2.frame167.chk
%nprocshared=20
%mem=10GB
%nosave
#b3lyp/svp scf=(tight,noincore,xqc) Test 
#IOP(5/87=12) Density=Current Pop=(MK,readradii) iop(6/33=2) iop(6/42=6)

holoCaM-CaMKII.loop4.water2.frame167 

   -3  1 
C         86.01745       30.87455        8.89556
C         85.50016       29.52130        9.28179
O         86.25512       28.56296        9.28282
H         87.09342       30.82871        8.62712
H         85.44438       31.25205        8.02193
H         85.88588       31.57835        9.74457
N         84.19720       29.38346        9.63634
C         83.57984       28.12010       10.02488
C         83.58907       27.11964        8.86253
O         83.12709       27.44658        7.77919
C         82.15527       28.41708       10.52731
C         81.43475       27.19694       10.99465
O         80.35322       26.92063       10.50786
O         81.94997       26.42830       11.97296
H         83.61845       30.23907        9.64482
H         84.13851       27.69864       10.89208
H         81.56426       28.91371        9.72677
H         82.22536       29.11344       11.39249
N         84.09499       25.86508        9.05199
C         84.22509       24.81975        8.02815
C         83.26762       23.64447        8.29158
O         83.12568       22.80353        7.41510
C         85.72894       24.34054        8.00619
C         86.65455       25.51629        7.60069
C         85.98660       23.10874        7.11337
C         88.15457       25.21717        7.70491
H         84.41267       25.63973        9.99633
H         83.93778       25.23064        7.03593
H         85.99847       24.02866        9.03917
H         86.46422       26.36270        8.28276
H         86.41918       25.84116        6.56463
H         85.72562       23.31951        6.05675
H         87.04436       22.78456        7.17414
H         85.42264       22.22706        7.47654
H         88.72939       26.13517        7.46059
H         88.41905       24.90513        8.73534
H         88.47228       24.43228        6.99075
N         82.60368       23.49847        9.47195
C         81.77173       22.33888        9.80898
C         80.38955       22.73914       10.33505
O         79.66810       21.86703       10.80000
C         82.53521       21.38178       10.76738
C         83.04249       21.99350       12.04107
O         83.62468       21.30500       12.86260
O         82.88212       23.30363       12.25793
H         82.74399       24.20991       10.19379
H         81.58030       21.71118        8.91052
H         83.41864       20.97781       10.22679
H         81.87419       20.52207       11.01488
N         79.90076       24.00421       10.18160
C         78.51475       24.35329       10.47096
C         78.15333       24.56312       11.93299
O         76.96537       24.70683       12.18535
H         80.47085       24.69298        9.67591
H         77.85799       23.57075       10.03262
H         78.25955       25.30044        9.94687
N         79.07740       24.68784       12.93366
C         78.69614       24.97210       14.32697
C         78.87683       26.44525       14.69497
O         78.67103       26.79142       15.84993
C         79.38721       23.98861       15.29765
C         80.87735       24.11385       15.38379
O         81.51977       23.23987       15.94335
O         81.52607       25.13776       14.81067
H         80.07801       24.65485       12.69137
H         77.60978       24.78269       14.46762
H         79.15032       22.96375       14.93575
H         78.97571       24.09023       16.32452
N         79.13798       27.38611       13.73999
C         79.12414       28.81999       13.98936
C         80.32421       29.36880       14.72883
O         80.35083       30.57691       14.92407
H         79.22221       27.09643       12.75911
H         78.18607       29.08948       14.52223
H         79.10762       29.34009       13.00672
N         81.35813       28.58849       15.15169
C         82.54213       29.12466       15.81533
C         83.80659       28.78994       15.04838
O         83.76487       28.07660       14.05295
C         82.62640       28.58447       17.25784
C         81.57702       29.24352       18.16146
C         81.69063       28.74586       19.57936
N         80.63122       28.17747       20.19879
O         82.74693       28.87137       20.18224
H         81.32042       27.57370       14.99704
H         82.51007       30.23638       15.85781
H         83.61815       28.82430       17.69610
H         82.51183       27.47874       17.25268
H         80.55782       29.05590       17.76244
H         81.75243       30.34211       18.16927
H         79.72735       28.07710       19.71504
H         80.71191       27.84689       21.17167
N         84.98369       29.32854       15.47052
C         86.27734       29.11838       14.84371
C         87.19500       28.46646       15.86724
O         87.39470       29.01121       16.94531
C         86.81251       30.47596       14.31049
C         88.26216       30.38127       13.80830
C         85.91612       30.96988       13.15810
H         84.96759       29.95374       16.29266
H         86.19116       28.44094       13.96741
H         86.79210       31.22587       15.13240
H         88.35355       29.64230       12.98593
H         88.59874       31.37301       13.43573
H         88.94363       30.09151       14.63510
H         84.86351       31.08629       13.49043
H         86.26712       31.95391       12.78231
H         85.93725       30.24536       12.31327
N         87.79730       27.28495       15.56725
C         88.67708       26.53532       16.45276
C         90.12697       26.86244       16.11797
O         90.37226       27.58984       15.16540
C         88.33214       25.03068       16.24676
C         89.11121       24.02660       17.05441
N         89.06766       24.03178       18.40410
O         89.76618       23.17121       16.47763
H         87.65393       26.89950       14.62843
H         88.49842       26.83349       17.50871
H         88.47870       24.78569       15.17133
H         87.25556       24.88115       16.47707
H         88.50726       24.73132       18.90950
H         89.59515       23.32750       18.94144
N         91.14806       26.36970       16.87508
C         92.56038       26.56157       16.54726
C         92.85020       25.97700       15.17825
O         93.50801       26.61948       14.37370
C         93.45429       25.87221       17.59984
C         94.91349       25.96536       17.21383
C         95.54434       27.21439       17.07799
C         95.64390       24.79541       16.94772
C         96.87910       27.28928       16.66978
C         96.97775       24.87294       16.54114
C         97.59893       26.12145       16.39627
O         98.88150       26.21039       15.99122
H         90.91347       25.80476       17.70343
H         92.80250       27.64756       16.54427
H         93.15266       24.80384       17.67855
H         93.29731       26.34215       18.59478
H         95.00147       28.13028       17.27422
H         95.17760       23.82225       17.03996
H         97.35138       28.25709       16.55774
H         97.52356       23.96199       16.33107
H         99.40876       25.42657       15.78047
N         92.33104       24.76684       14.84633
C         92.43246       24.15914       13.52792
C         91.93268       25.12377       12.46355
O         92.64805       25.38278       11.50573
C         91.57807       22.86460       13.52509
C         91.61873       22.08528       12.20585
C         90.73635       20.87033       12.29714
O         90.97833       19.92439       13.22554
O         89.79198       20.73761       11.53491
H         91.77736       24.28014       15.56401
H         93.49279       23.89345       13.32049
H         90.51889       23.12557       13.74903
H         91.94399       22.19895       14.33823
H         92.65971       21.76460       11.99012
H         91.26293       22.73104       11.37391
N         90.69130       25.67276       12.56781
C         90.08699       26.49008       11.51672
C         90.72835       27.87298       11.40036
O         90.41479       28.58275       10.45480
C         88.55909       26.62052       11.73776
C         87.89350       25.23392       11.91534
C         86.41967       25.28798       12.15659
O         85.68593       24.54290       11.53511
O         85.90922       26.03864       13.14730
H         90.14627       25.43800       13.40698
H         90.22621       25.94782       10.55513
H         88.10311       27.15063       10.87354
H         88.38521       27.23726       12.63834
H         88.29783       24.71542       12.79929
H         88.10387       24.59501       11.03288
N         91.61645       28.33510       12.32576
C         92.25146       29.63182       12.23411
H         92.87214       29.68609       11.31526
H         91.48625       30.43578       12.22306
H         92.91445       29.78856       13.11395
H         91.84866       27.76183       13.13929
Ca        83.48456       24.54582       13.99039
O         84.32670       25.49847       16.64725
H         83.83087       24.64439       16.71730
H         84.32113       25.86107       17.56769
O         86.03602       23.08082       14.60939
H         85.23701       22.49738       14.58703
H         86.66393       22.66669       13.96607

Ca 1.0



