%chk=holoCaM-CaMKII.loop3.water2.frame142.chk
%nprocshared=20
%mem=10GB
%nosave
#b3lyp/svp scf=(tight,noincore,xqc) Test 
#IOP(5/87=12) Density=Current Pop=(MK,readradii) iop(6/33=2) iop(6/42=6)

holoCaM-CaMKII.loop3.water2.frame142 

   0  1 
C         23.35017       22.89387       76.88213
C         24.51677       23.50470       77.59996
O         24.43660       23.69580       78.80299
H         22.46845       23.56313       76.96859
H         23.57330       22.74569       75.80399
H         23.11166       21.90808       77.33149
N         25.62957       23.86974       76.90831
C         26.79957       24.49425       77.50543
C         26.79749       25.94942       77.09506
O         27.61794       26.38487       76.30171
C         28.04807       23.67612       77.11118
C         29.37858       24.27772       77.48124
O         30.21009       24.43407       76.60309
O         29.69540       24.62424       78.74503
H         25.63693       23.74079       75.88467
H         26.72525       24.48705       78.60275
H         28.04618       23.51342       76.01179
H         27.97599       22.68239       77.59841
N         25.82415       26.75357       77.61022
C         25.62981       28.15262       77.24685
C         26.69129       29.09242       77.82388
O         26.64994       30.26289       77.47038
C         24.21827       28.61148       77.68134
C         23.11380       27.78294       76.98924
C         21.71976       28.19484       77.47778
C         20.59063       27.34494       76.86597
N         20.46817       27.52916       75.41862
H         25.14851       26.31889       78.25725
H         25.66925       28.22972       76.13711
H         24.07012       29.67924       77.40672
H         24.12979       28.51740       78.78640
H         23.23999       26.70220       77.20876
H         23.19942       27.92818       75.89174
H         21.53992       29.26936       77.25885
H         21.68419       28.05161       78.58010
H         19.63450       27.65111       77.34478
H         20.75591       26.26824       77.09596
H         21.31161       27.16331       74.92326
H         19.63554       26.99500       75.07958
H         20.33065       28.54149       75.19505
N         27.68103       28.67421       78.67330
C         28.77805       29.54748       79.11009
C         30.09863       29.14606       78.45588
O         31.08074       29.85307       78.63378
C         28.88509       29.64293       80.65113
C         29.09504       28.33498       81.35679
O         28.20939       27.49834       81.37312
O         30.22929       28.11491       82.04742
H         27.70497       27.68763       78.96432
H         28.59991       30.58545       78.75578
H         27.96579       30.10996       81.06418
H         29.73694       30.31524       80.89587
N         30.18156       28.06693       77.62926
C         31.34681       27.71787       76.84386
C         32.55331       27.39646       77.67995
O         33.62083       27.91680       77.38975
H         29.36584       27.46520       77.49397
H         31.57564       28.52889       76.11855
H         31.10013       26.81224       76.24997
N         32.46702       26.50454       78.70518
C         33.62355       26.02098       79.44811
C         33.79448       24.51062       79.25556
O         34.66785       23.93002       79.88324
C         33.53234       26.44624       80.92901
C         32.58724       25.62962       81.77501
N         33.05285       24.98946       82.87514
O         31.40429       25.55171       81.48259
H         31.54337       26.12693       78.94816
H         34.54628       26.50681       79.06284
H         33.25400       27.52229       80.97834
H         34.55003       26.35739       81.36722
H         34.04503       25.05563       83.14858
H         32.42338       24.43508       83.46930
N         33.03270       23.82479       78.34736
C         33.20302       22.41875       78.02435
C         32.48031       21.45495       78.94737
O         32.55919       20.26506       78.67580
H         32.38301       24.34155       77.74490
H         34.28503       22.17782       77.94582
H         32.76277       22.24893       77.01650
N         31.75193       21.85877       80.03021
C         31.03677       20.92606       80.90473
C         29.57122       21.28416       81.03340
O         29.26040       22.45925       81.15927
C         31.61892       20.93632       82.32877
C         32.97350       20.28612       82.41392
C         33.09479       19.03095       83.03480
C         34.11880       20.90884       81.89543
C         34.33685       18.40501       83.12901
C         35.36594       20.28379       81.99887
C         35.47714       19.02747       82.61540
O         36.67046       18.41073       82.72290
H         31.70949       22.86209       80.26312
H         31.10475       19.87617       80.54093
H         30.92071       20.34361       82.96311
H         31.65087       21.96092       82.75402
H         32.22415       18.52861       83.43931
H         34.04988       21.87962       81.42540
H         34.40989       17.43502       83.60424
H         36.24403       20.77677       81.60224
H         37.48652       18.80720       82.38766
N         28.63592       20.29669       81.19567
C         27.24819       20.56888       81.57215
C         26.93402       19.97106       82.93990
O         27.70553       19.16856       83.45120
C         26.23788       20.05907       80.50225
C         26.25328       18.51116       80.36715
C         26.50899       20.75506       79.15982
C         25.14922       17.96978       79.45636
H         28.93790       19.31242       81.12671
H         27.10443       21.66674       81.67233
H         25.22027       20.36032       80.83789
H         26.08072       18.05681       81.36612
H         27.23791       18.15933       79.99268
H         26.47714       21.85528       79.29876
H         27.50701       20.46988       78.76352
H         25.73922       20.49842       78.40525
H         24.15307       18.29323       79.82751
H         25.28144       18.30768       78.40950
H         25.18112       16.85958       79.45881
N         25.81045       20.36047       83.60237
C         25.39246       19.84767       84.90254
C         23.89824       19.52876       84.89175
O         23.25046       19.70853       83.86813
C         25.72368       20.89815       85.97840
O         25.02399       22.08550       85.74263
H         25.24710       21.11193       83.18593
H         25.95942       18.92690       85.16305
H         26.81794       21.10014       85.94811
H         25.46491       20.50836       86.98651
H         25.29200       22.71463       86.46152
N         23.27167       19.09118       86.02088
C         21.82365       18.91133       86.11928
C         21.11070       20.22388       85.85656
O         20.16513       20.24629       85.08283
C         21.43744       18.41058       87.51469
H         23.84269       18.92356       86.86371
H         21.48261       18.14334       85.38884
H         21.74133       19.13712       88.29835
H         20.33636       18.26449       87.57196
H         21.92783       17.43521       87.71600
N         21.54602       21.36832       86.45582
C         20.95191       22.67977       86.22762
C         20.96148       23.04571       84.75503
O         19.91042       23.36612       84.21700
C         21.72437       23.74796       87.01899
H         22.36035       21.30384       87.08649
H         19.90249       22.67784       86.59704
H         21.26981       24.74995       86.86471
H         21.69768       23.51419       88.10427
H         22.78809       23.79102       86.69824
N         22.12484       23.04212       84.04606
C         22.20745       23.49585       82.65964
C         21.46835       22.57394       81.69344
O         21.31134       22.94591       80.53825
C         23.67180       23.60142       82.18527
C         24.57290       24.45039       83.09990
C         25.96436       24.47531       82.55537
O         26.88758       23.98385       83.18338
O         26.19365       25.04064       81.36212
H         22.97554       22.74730       84.53689
H         21.75958       24.51376       82.61912
H         23.67677       24.04686       81.16906
H         24.09498       22.58152       82.10669
H         24.61901       24.02377       84.11794
H         24.18696       25.48782       83.17576
N         21.03437       21.33869       82.07056
C         20.36789       20.43418       81.16106
H         19.41977       20.88577       80.80253
H         21.02911       20.20791       80.29773
H         20.13415       19.48129       81.68403
H         21.20408       21.00377       83.02354
Ca        28.20182       24.93385       80.38046
O         28.93027       26.30349       84.14248
H         29.47273       26.10536       84.94664
H         28.01315       26.44391       84.48783
O         29.80303       23.47186       83.87906
H         30.59610       23.38792       84.46408
H         29.05148       23.17158       84.44752

Ca 1.0



