%chk=holoCaM.loop3.water2.frame163.chk
%nprocshared=20
%mem=10GB
%nosave
#b3lyp/svp scf=(tight,noincore,xqc) Test 
#IOP(5/87=12) Density=Current Pop=(MK,readradii) iop(6/33=2) iop(6/42=6)

holoCaM.loop3.water2.frame163 

   0  1 
C         92.76737      100.71205       84.47452
C         91.37877      100.18441       84.70364
O         90.82066      100.41023       85.76630
H         93.46502       99.86303       84.31141
H         92.78816      101.37136       83.58093
H         93.11922      101.29175       85.35436
N         90.75701       99.46654       83.72943
C         89.41978       98.89517       83.86561
C         89.51229       97.51259       84.51264
O         89.68613       96.52388       83.81588
C         88.74770       98.94007       82.48798
C         87.35360       98.45757       82.48303
O         86.42342       98.93626       83.32814
O         87.03478       97.71780       81.59111
H         91.25295       99.35186       82.83027
H         88.78475       99.54502       84.50862
H         89.34494       98.38329       81.72680
H         88.68440       99.98789       82.14806
N         89.52542       97.41970       85.87815
C         89.84731       96.20898       86.65705
C         88.68483       95.22961       86.79829
O         88.90774       94.10802       87.23290
C         90.32564       96.61294       88.07413
C         91.46641       97.63491       88.00276
C         91.91885       98.12425       89.37508
C         93.02779       99.16122       89.13920
N         93.71651       99.54289       90.36693
H         89.41430       98.30720       86.38273
H         90.68262       95.68098       86.14088
H         90.67038       95.71556       88.63821
H         89.48088       97.07129       88.62999
H         91.15836       98.54386       87.46001
H         92.31628       97.18550       87.44387
H         92.27572       97.26075       89.97391
H         91.06809       98.60342       89.91696
H         92.56811      100.06033       88.66805
H         93.77808       98.74662       88.43008
H         94.24340       98.72448       90.75057
H         94.40408      100.29529       90.13071
H         93.03875       99.90066       91.07585
N         87.42732       95.58271       86.42647
C         86.30694       94.64994       86.28958
C         86.20436       94.17916       84.83055
O         85.39886       93.30832       84.53156
C         84.97274       95.32437       86.70224
C         84.80532       96.69623       86.10101
O         84.07444       96.86681       85.14288
O         85.44749       97.75061       86.64510
H         87.32068       96.52105       86.03085
H         86.46635       93.74892       86.92705
H         84.88632       95.43705       87.80221
H         84.13140       94.67179       86.37862
N         86.97393       94.76540       83.87113
C         87.00131       94.49690       82.44850
C         85.65112       94.49791       81.77456
O         85.42168       93.62069       80.95526
H         87.60905       95.50768       84.14896
H         87.54836       93.55683       82.23524
H         87.59708       95.31713       81.99316
N         84.73361       95.47786       82.00682
C         83.44652       95.54158       81.30600
C         83.52075       96.46003       80.05977
O         82.55891       96.56248       79.31270
C         82.36657       95.95956       82.32451
C         82.34012       97.45440       82.51152
N         81.17585       98.11660       82.35762
O         83.36433       98.07309       82.75451
H         84.97850       96.22359       82.67466
H         83.18849       94.51712       80.95797
H         82.54642       95.44373       83.29511
H         81.36797       95.62990       81.97003
H         80.30019       97.60132       82.20372
H         81.13784       99.13815       82.39325
N         84.67309       97.14484       79.80647
C         85.03706       97.96699       78.66504
C         84.90865       99.46798       78.90156
O         85.22671      100.21857       77.98932
H         85.42448       96.97623       80.43921
H         84.48748       97.63922       77.76129
H         86.12152       97.78555       78.47433
N         84.40976       99.97482       80.06834
C         84.07626      101.38644       80.28827
C         84.47237      101.89145       81.66200
O         84.32136      101.16135       82.62240
C         82.55419      101.52153       80.26310
C         82.00967      101.29271       78.89149
C         81.60687      100.01397       78.48365
C         81.90489      102.37433       78.00756
C         81.11766       99.81652       77.19046
C         81.40915      102.17946       76.72303
C         81.01724      100.90107       76.30788
O         80.53161      100.71915       75.06724
H         84.12509       99.31014       80.79344
H         84.49811      102.05064       79.49979
H         82.27516      102.55043       80.58099
H         82.10412      100.81021       80.98743
H         81.67486       99.17759       79.16795
H         82.20229      103.36882       78.31750
H         80.81122       98.82437       76.88325
H         81.32688      103.02226       76.04880
H         80.40421      101.47309       74.47332
N         84.84255      103.19537       81.83964
C         85.13455      103.79865       83.14174
C         84.34792      105.09550       83.38360
O         84.47159      106.04712       82.62515
C         86.66293      104.03584       83.22178
C         87.35020      102.65972       83.37320
C         87.07907      104.96622       84.37613
C         88.87117      102.71725       83.34973
H         84.96102      103.78596       81.00432
H         84.86430      103.10600       83.96228
H         86.96834      104.53202       82.27639
H         87.02159      101.97726       82.56416
H         87.02378      102.20921       84.33228
H         86.94095      104.49010       85.36301
H         88.13725      105.26740       84.26857
H         86.51339      105.90896       84.33521
H         89.26368      101.69643       83.47763
H         89.22798      103.11505       82.37936
H         89.27431      103.32667       84.18156
N         83.58965      105.20180       84.51460
C         82.94936      106.42786       85.00741
C         83.94129      107.34807       85.71766
O         85.08382      106.97207       85.86257
C         81.82957      106.04280       85.99189
O         82.32216      105.39648       87.13285
H         83.50189      104.35103       85.08137
H         82.48577      106.96775       84.15381
H         81.09642      105.38693       85.48010
H         81.28918      106.94848       86.33155
H         82.48916      104.44527       86.91573
N         83.56430      108.56161       86.21995
C         84.47102      109.45970       86.94831
C         84.46936      109.17296       88.44015
O         85.43580      109.48634       89.12343
C         84.07553      110.89484       86.66201
H         82.58203      108.85166       86.10877
H         85.51594      109.29285       86.59795
H         83.01692      111.04249       86.96714
H         84.72381      111.59983       87.21849
H         84.16178      111.07427       85.56871
N         83.44731      108.46731       88.97695
C         83.51185      107.75901       90.24238
C         84.61397      106.68706       90.16620
O         85.38616      106.56696       91.10569
C         82.11884      107.14607       90.49321
H         82.60643      108.32975       88.39924
H         83.71751      108.43501       91.10356
H         81.41015      107.97937       90.70613
H         81.73766      106.61169       89.59441
H         82.10116      106.45117       91.35509
N         84.74043      105.87730       89.07027
C         85.70162      104.77360       88.94658
C         87.12526      105.29704       88.86561
O         87.95412      104.90972       89.67720
C         85.34709      103.83596       87.74641
C         86.32443      102.64447       87.63751
C         85.95128      101.56885       86.65103
O         86.67751      100.59140       86.56592
O         84.83826      101.59517       85.89563
H         84.11202      106.06097       88.28979
H         85.60154      104.13146       89.84561
H         85.29299      104.38877       86.78754
H         84.34358      103.40986       87.94717
H         86.35433      102.13280       88.61723
H         87.35338      103.00563       87.40597
N         87.46646      106.20545       87.91799
C         88.77531      106.79997       87.80622
H         89.51968      106.03523       87.50561
H         88.74469      107.60023       87.03351
H         89.05991      107.26487       88.77315
H         86.75329      106.52580       87.26960
Ca        84.80393       99.68745       84.69698
O         83.08220       99.79366       87.19937
H         83.38790      100.40022       87.91990
H         82.70638       99.01012       87.67166
O         82.05070      100.39802       84.30571
H         81.26548      100.51714       84.89334
H         81.81152      100.87674       83.47320

Ca 1.0



