%chk=holoCaM-CaMKII.loop2.water2.frame218.chk
%nprocshared=20
%mem=10GB
%nosave
#b3lyp/svp scf=(tight,noincore,xqc) Test 
#IOP(5/87=12) Density=Current Pop=(MK,readradii) iop(6/33=2) iop(6/42=6)

holoCaM-CaMKII.loop2.water2.frame218 

   -2  1 
C         25.00442       57.85347       58.26319
C         24.27630       58.43840       59.43898
O         24.90741       58.84826       60.40126
H         26.10250       57.85995       58.42630
H         24.66747       56.80960       58.09231
H         24.77834       58.45535       57.35611
N         22.92113       58.52593       59.40568
C         22.11930       59.15552       60.44777
C         22.22186       58.43658       61.78733
O         21.91002       57.25629       61.86069
C         20.64823       59.19775       59.99383
C         19.77877       59.88338       60.99809
O         18.74255       59.22405       61.55015
O         20.01388       61.03507       61.32317
H         22.44271       58.16960       58.56264
H         22.46122       60.20800       60.55922
H         20.27365       58.16421       59.82749
H         20.57549       59.75388       59.03529
N         22.59603       59.12987       62.90309
C         22.63069       58.56887       64.25030
C         21.70453       59.30880       65.22720
O         21.62942       58.87972       66.37054
C         24.07254       58.63732       64.76897
H         22.86155       60.11513       62.79189
H         22.31642       57.50318       64.23072
H         24.75117       58.08403       64.08572
H         24.41401       59.69487       64.82451
H         24.15161       58.18602       65.78103
N         21.01888       60.44343       64.88114
C         20.23681       61.24482       65.83271
C         18.84343       61.64619       65.34293
O         18.12497       62.27418       66.10979
C         21.03195       62.50448       66.23432
C         21.48342       63.40881       65.11326
O         21.31138       63.10581       63.81003
O         22.10011       64.42191       65.39984
H         21.13406       60.80585       63.93124
H         20.07981       60.66871       66.77180
H         21.94887       62.17867       66.77135
H         20.42400       63.09832       66.95234
N         18.37798       61.32426       64.10664
C         17.04150       61.65968       63.63609
C         16.76070       63.13982       63.40818
O         15.62996       63.43167       63.04330
H         18.96258       60.75562       63.49223
H         16.29989       61.25513       64.35930
H         16.87097       61.15108       62.66252
N         17.68643       64.13333       63.58501
C         17.34622       65.54981       63.39854
C         17.07239       65.96020       61.93780
O         16.76898       67.12498       61.71750
C         18.40489       66.48283       64.03233
C         19.74300       66.53048       63.35193
N         20.64497       67.45787       63.74300
O         20.01017       65.76950       62.43734
H         18.62807       63.89129       63.92236
H         16.42262       65.74676       63.98783
H         18.55402       66.22122       65.10258
H         17.99416       67.51544       63.99625
H         20.42969       68.11423       64.50662
H         21.54489       67.55215       63.26312
N         17.12751       65.07658       60.89829
C         16.77814       65.42231       59.52431
C         17.89570       66.04850       58.70171
O         17.67089       66.25282       57.51740
H         17.30978       64.08553       61.09033
H         15.85970       66.04903       59.50584
H         16.52441       64.47651       58.99929
N         19.11843       66.35475       59.22254
C         20.24001       66.86834       58.42925
C         21.45728       65.95806       58.56300
O         21.41505       64.99440       59.31430
C         20.58644       68.31423       58.87546
C         19.47858       69.29137       58.47931
O         20.78452       68.38121       60.26498
H         19.27448       66.21500       60.22520
H         19.98704       66.89106       57.34646
H         21.49681       68.68240       58.35150
H         21.65031       67.93689       60.45822
H         19.34236       69.28028       57.37544
H         18.51719       69.02664       58.96540
H         19.76185       70.32292       58.77922
N         22.60404       66.24122       57.87628
C         23.84096       65.48292       58.02535
C         24.73922       66.26348       58.96968
O         25.05056       67.41116       58.68075
C         24.53962       65.25015       56.64281
C         23.61278       64.49616       55.65360
C         25.86760       64.48592       56.83643
C         24.22396       64.31453       54.25616
H         22.63346       67.08639       57.28662
H         23.63489       64.48677       58.47495
H         24.77674       66.24389       56.20010
H         22.67640       65.07916       55.52386
H         23.34842       63.49690       56.06161
H         26.54299       65.04411       57.50904
H         25.68354       63.47717       57.26378
H         26.42627       64.38123       55.88584
H         25.11926       63.66029       54.27915
H         23.48593       63.82734       53.58530
H         24.50180       65.29834       53.82099
N         25.21342       65.68529       60.11208
C         26.15962       66.34512       61.00538
C         27.58090       66.06115       60.58252
O         27.79575       65.33456       59.62895
C         25.91797       65.94778       62.47843
C         24.75143       66.71076       63.02155
O         23.48928       66.45222       62.64984
O         24.95862       67.65824       63.76365
H         24.99757       64.69497       60.28560
H         26.06845       67.45139       60.91350
H         26.78954       66.27890       63.07708
H         25.83210       64.84924       62.62915
N         28.61508       66.68178       61.21552
C         29.99335       66.56528       60.77236
C         30.50924       65.12625       60.82440
O         30.94800       64.65914       59.78274
C         30.91611       67.50639       61.57388
C         32.26469       67.60479       60.91049
C         33.38709       66.96282       61.45572
C         32.39987       68.34043       59.71983
C         34.62533       67.04975       60.81074
C         33.64088       68.43761       59.08786
C         34.75270       67.78925       59.63046
H         28.40602       67.32113       61.99751
H         30.01736       66.91955       59.71591
H         31.00795       67.15239       62.61514
H         30.49031       68.53229       61.63129
H         33.29913       66.38151       62.36515
H         31.54465       68.84722       59.28842
H         35.48643       66.54242       61.22468
H         33.73835       69.01393       58.17671
H         35.71197       67.85960       59.13506
N         30.51122       64.34547       61.95806
C         31.06404       62.99614       61.98380
C         30.25132       62.02688       61.14679
O         30.77850       60.98453       60.78299
C         31.04958       62.62767       63.47208
C         29.82884       63.37309       63.97109
C         29.97350       64.71385       63.25490
H         32.11414       62.98990       61.61595
H         31.08201       61.53958       63.69649
H         31.92725       63.11051       63.95885
H         28.92793       62.85214       63.57493
H         29.72847       63.45166       65.07444
H         28.97390       65.18740       63.21097
H         30.70634       65.35497       63.78616
N         28.95798       62.28983       60.81879
C         28.15853       61.41389       59.97547
C         28.71686       61.45864       58.56636
O         29.06634       60.42044       58.02335
C         26.67336       61.83613       60.02232
C         26.13226       61.72222       61.46701
C         24.69500       62.11184       61.62160
O         24.16131       62.13519       62.85640
O         24.01057       62.42545       60.66193
H         28.52269       63.14908       61.18197
H         28.19935       60.37063       60.36475
H         26.08252       61.16963       59.35641
H         26.56106       62.88094       59.66237
H         26.70766       62.38704       62.14069
H         26.24957       60.67947       61.83250
N         28.88012       62.65399       57.93675
C         29.47189       62.78488       56.62597
H         30.50198       62.36930       56.63364
H         28.85265       62.25710       55.87293
H         29.53280       63.86102       56.35115
H         28.60677       63.51413       58.42003
Ca        22.47970       64.46303       62.44530
O         19.36898       63.12973       59.35661
H         18.47644       62.96661       58.96411
H         19.21604       63.16450       60.33313
O         21.98617       62.18828       58.50905
H         22.92056       62.00278       58.24147
H         21.43675       61.77666       57.79639

Ca 1.0



