%chk=holoCaM.loop4.water3.frame222.chk
%nprocshared=20
%mem=10GB
%nosave
#b3lyp/svp scf=(tight,noincore,xqc) Test 
#IOP(5/87=12) Density=Current Pop=(MK,readradii) iop(6/33=2) iop(6/42=6)

holoCaM.loop4.water3.frame222 

   -3  1 
C         44.82288       43.84794       17.84344
C         44.32632       42.89881       18.89096
O         43.13864       42.92799       19.17641
H         45.90532       43.70762       17.64622
H         44.27019       43.65233       16.89779
H         44.63675       44.89422       18.15902
N         45.16256       41.98186       19.46198
C         44.66073       40.88544       20.27851
C         45.65505       40.48065       21.36257
O         46.79386       40.19414       21.01619
C         44.44012       39.69043       19.33287
C         43.64622       38.59123       19.96087
O         43.47661       37.55061       19.34817
O         43.05134       38.77023       21.15579
H         46.13789       41.93777       19.12905
H         43.68290       41.16091       20.72423
H         45.42451       39.30485       18.98902
H         43.87453       40.01294       18.43341
N         45.28867       40.36611       22.67821
C         46.20930       39.87845       23.71291
C         45.76824       38.54189       24.32676
O         46.54799       37.99472       25.09360
C         46.45772       40.96086       24.81386
C         45.20191       41.21674       25.69411
C         46.99250       42.25253       24.16551
C         45.42879       42.23864       26.81429
H         44.32506       40.60738       22.94627
H         47.19849       39.66720       23.25122
H         47.25793       40.57794       25.48711
H         44.90814       40.26225       26.18089
H         44.34867       41.55640       25.07862
H         47.29824       42.99260       24.93249
H         47.89541       42.02884       23.55891
H         46.22736       42.71600       23.50856
H         46.27464       41.92576       27.46289
H         45.63144       43.24944       26.40457
H         44.51360       42.31524       27.43893
N         44.54219       37.97564       24.08523
C         44.08164       36.74991       24.75145
C         43.43817       35.70802       23.82185
O         43.03441       34.66895       24.32747
C         43.12744       37.12696       25.90731
C         41.86736       37.85560       25.52127
O         41.61798       38.13825       24.36121
O         41.00092       38.21042       26.48763
H         43.87149       38.48611       23.50285
H         44.94222       36.23817       25.23545
H         43.68486       37.77472       26.61814
H         42.83946       36.20207       26.45253
N         43.31739       35.88160       22.47422
C         42.74238       34.88059       21.57662
C         41.24697       34.60426       21.73987
O         40.76186       33.72136       21.04649
H         43.71861       36.71912       22.04645
H         43.30069       33.92939       21.71382
H         42.89837       35.20643       20.52572
N         40.45272       35.28309       22.61948
C         39.03619       34.96525       22.86071
C         38.06185       35.30774       21.71657
O         36.86677       35.12463       21.90560
C         38.56413       35.62226       24.18007
C         38.54513       37.12405       24.19459
O         38.91382       37.77636       23.23232
O         38.11540       37.75688       25.30155
H         40.89106       36.00159       23.20708
H         38.95894       33.87155       23.04947
H         39.22685       35.27948       25.00425
H         37.53604       35.26748       24.40760
N         38.47797       35.76256       20.50373
C         37.58777       36.02098       19.38002
C         36.92390       37.38877       19.37132
O         36.31594       37.69398       18.35466
H         39.48001       35.81092       20.31301
H         36.84527       35.20119       19.26441
H         38.21666       36.00878       18.46235
N         37.00735       38.28002       20.40618
C         36.51234       39.65738       20.30469
C         37.64873       40.66198       20.61464
O         38.86079       40.15299       20.15039
C         35.33647       39.89747       21.26804
C         34.10205       39.07845       20.86971
C         32.93512       39.38465       21.77182
N         32.98809       39.10230       23.09400
O         31.92674       39.89037       21.30152
H         37.46869       37.99900       21.27861
H         36.16482       39.86365       19.26738
H         35.04276       40.96860       21.23593
H         35.65486       39.66068       22.30668
H         34.32240       37.99098       20.90990
H         33.82793       39.34315       19.82352
H         33.82463       38.66625       23.50762
H         32.18594       39.31443       23.70555
N         37.39437       41.96042       19.96396
C         38.25531       43.06215       20.43857
C         37.74486       43.61376       21.76689
O         36.55969       43.89358       21.88323
C         38.30423       44.19542       19.37421
C         39.30919       45.29187       19.78237
C         38.70871       43.65172       17.99353
H         36.38891       42.24497       19.98980
H         39.29968       42.69741       20.54339
H         37.29438       44.65179       19.27647
H         40.33458       44.86920       19.87244
H         39.33008       46.10178       19.02259
H         39.03138       45.75173       20.75166
H         37.97421       42.90053       17.63539
H         38.72904       44.47742       17.24968
H         39.71480       43.18161       18.03138
N         38.61168       43.86231       22.78677
C         38.21899       44.39261       24.09029
C         38.73845       45.81673       24.26132
O         39.41404       46.32811       23.38050
C         38.76826       43.40919       25.15314
C         38.52474       43.74833       26.60121
N         37.26997       43.86786       27.09094
O         39.47977       43.89501       27.34957
H         39.61360       43.69160       22.62627
H         37.11208       44.44765       24.17340
H         39.86606       43.30510       25.00139
H         38.29454       42.42869       24.96539
H         36.45097       43.74037       26.48039
H         37.12061       44.09671       28.08516
N         38.40216       46.53667       25.36900
C         38.87420       47.88625       25.66069
C         40.38239       47.89758       25.84877
O         41.04232       48.75581       25.28304
C         38.17601       48.40791       26.93584
C         38.52107       49.84528       27.24661
C         38.19206       50.87062       26.34153
C         39.15929       50.17593       28.45281
C         38.50011       52.20124       26.63801
C         39.46541       51.50780       28.74761
C         39.13614       52.52538       27.84029
O         39.42230       53.81417       28.11364
H         37.75691       46.10813       26.04367
H         38.59015       48.55843       24.82117
H         38.44184       47.74594       27.78978
H         37.07393       48.34985       26.79764
H         37.69222       50.64392       25.40828
H         39.41877       49.40430       29.16676
H         38.24036       52.98150       25.93330
H         39.95611       51.74725       29.68228
H         39.85700       54.08123       28.93605
N         40.99731       46.95513       26.62247
C         42.44914       46.88592       26.80767
C         43.21506       46.60194       25.51002
O         44.43761       46.62728       25.55544
C         42.82280       45.78854       27.83280
C         42.25671       46.05760       29.23530
C         42.69340       44.98775       30.19497
O         43.44235       45.30817       31.26739
O         42.36942       43.82493       30.01112
H         40.40141       46.26079       27.09292
H         42.79503       47.86701       27.20296
H         43.93124       45.74488       27.92737
H         42.46721       44.80121       27.46040
H         41.14771       46.08522       29.22118
H         42.62824       47.04224       29.59343
N         42.58753       46.32861       24.32821
C         43.28753       46.05746       23.07623
C         43.01412       47.12753       22.02050
O         43.62807       47.06505       20.96337
C         42.77401       44.74365       22.47545
C         42.78706       43.50540       23.38534
C         42.06479       42.38017       22.68269
O         41.77938       41.21630       23.28681
O         41.64777       42.54060       21.54667
H         41.56814       46.28926       24.30495
H         44.38405       46.00655       23.25013
H         43.34094       44.51387       21.54518
H         41.70853       44.92718       22.20130
H         42.23127       43.72930       24.32033
H         43.82586       43.21985       23.63844
N         42.06748       48.09315       22.19088
C         41.74027       49.04878       21.15748
H         40.92180       49.71457       21.50767
H         42.62835       49.66634       20.91311
H         41.38890       48.51380       20.24882
H         41.52115       48.14198       23.05378
Ca        40.24678       40.19913       21.96881
O         40.53021       38.01219       19.97764
H         41.12369       37.22619       20.05685
H         40.11342       37.92301       19.08449
O         41.35786       40.53188       18.72792
H         40.62936       40.56606       18.05999
H         41.11627       41.22027       19.39501
O         39.49508       40.24797       24.79817
H         39.40101       40.29551       25.78193
H         38.56568       40.20657       24.45761

Ca 1.0



