%chk=holoCaM.loop4.water3.frame76.chk
%nprocshared=20
%mem=10GB
%nosave
#b3lyp/svp scf=(tight,noincore,xqc) Test 
#IOP(5/87=12) Density=Current Pop=(MK,readradii) iop(6/33=2) iop(6/42=6)

holoCaM.loop4.water3.frame76 

   -3  1 
C        103.55159        3.56799      122.90519
C        102.73543        4.69544      123.46367
O        101.51892        4.57640      123.48487
H        104.63926        3.77524      122.98260
H        103.33743        2.65049      123.49773
H        103.28434        3.38400      121.84600
N        103.34329        5.78864      124.00983
C        102.61748        6.77404      124.79663
C        103.00394        8.21309      124.45617
O        104.17686        8.55168      124.53361
C        102.92870        6.45787      126.26627
C        102.15398        7.32002      127.19708
O        100.93496        7.31667      127.15041
O        102.79962        8.08642      128.09609
H        104.37429        5.83027      124.01726
H        101.51942        6.64765      124.66302
H        104.01711        6.56933      126.46303
H        102.64376        5.40292      126.47426
N        102.03639        9.12941      124.14834
C        102.27289       10.55760      123.92904
C        101.58836       11.43719      124.99035
O        101.81651       12.63790      124.95498
C        101.80738       10.99128      122.49753
C        100.27060       10.82975      122.30224
C        102.60214       10.22076      121.42888
C         99.73953       11.38190      120.97717
H        101.07349        8.79790      124.10054
H        103.36177       10.76735      124.01538
H        102.05083       12.07097      122.37867
H         99.73522       11.37331      123.10911
H         99.98609        9.76716      122.36435
H        102.38305        9.13306      121.47936
H        102.36436       10.58459      120.40912
H        103.69097       10.37554      121.58206
H         99.96427       12.46589      120.89371
H        100.16601       10.84423      120.10697
H         98.63676       11.24681      120.94084
N        100.71358       10.93718      125.92228
C         99.97936       11.78365      126.87814
C        100.11723       11.38755      128.34521
O         99.75221       12.18463      129.19988
C         98.47800       11.77949      126.54215
C         97.79398       10.42550      126.61548
O         98.46535        9.26826      126.86394
O         96.59311       10.39582      126.43385
H        100.50818        9.93525      125.89839
H        100.33927       12.83270      126.79665
H         98.33434       12.18695      125.51810
H         97.96106       12.46800      127.24819
N        100.52283       10.14871      128.71292
C        100.56801        9.67261      130.08071
C         99.21503        9.69254      130.76500
O         99.12110       10.30512      131.81889
H        100.79406        9.49232      127.98616
H        101.29875       10.28115      130.65680
H        100.92877        8.62143      130.08059
N         98.13647        9.01642      130.25719
C         96.86220        8.90618      130.98031
C         96.52492        7.45942      131.35051
O         95.56444        7.26191      132.08206
C         95.70313        9.60876      130.23034
C         95.26710        8.99007      128.93267
O         95.85405        7.88636      128.45756
O         94.34634        9.48905      128.30637
H         98.23937        8.54122      129.34910
H         96.95021        9.44270      131.94883
H         95.99677       10.66189      130.03384
H         94.81294        9.61761      130.89609
N         97.27045        6.40404      130.90651
C         97.05840        5.02195      131.30632
C         96.66825        4.11497      130.15489
O         96.60808        2.91471      130.38183
H         98.05548        6.56966      130.27087
H         96.27549        4.93071      132.09000
H         98.01138        4.65413      131.74505
N         96.32104        4.60013      128.92316
C         95.84123        3.75525      127.83529
C         96.60026        4.04655      126.50408
O         96.26739        5.33774      126.05073
C         94.31606        3.96056      127.64452
C         93.50178        3.56916      128.88832
C         92.02182        3.71223      128.63371
N         91.47869        4.91875      128.34655
O         91.30304        2.72555      128.69212
H         96.31195        5.61082      128.77035
H         95.99951        2.68339      128.08985
H         93.96646        3.32231      126.80371
H         94.11351        5.02191      127.38580
H         93.77975        4.20592      129.75483
H         93.72600        2.50968      129.14449
H         92.06321        5.76571      128.30177
H         90.46653        5.00786      128.17203
N         96.15518        3.04628      125.50970
C         96.60256        3.18437      124.10561
C         95.36776        3.33996      123.23120
O         94.48451        2.49611      123.30013
C         97.42146        1.94012      123.63670
C         97.71787        1.98528      122.12330
C         98.75309        1.83911      124.39352
H         96.24729        2.06693      125.86820
H         97.25570        4.06638      123.98132
H         96.82782        1.01922      123.83275
H         96.77755        1.97250      121.53236
H         98.29078        2.89960      121.85802
H         98.29975        1.09013      121.81789
H         99.30264        0.92643      124.07891
H         99.39015        2.71853      124.16461
H         98.59224        1.78352      125.48934
N         95.26957        4.37530      122.34535
C         94.13307        4.57620      121.44906
C         94.55023        4.46494      119.98265
O         95.70479        4.18745      119.68947
C         93.45196        5.91946      121.78278
C         94.30332        7.11304      121.44946
N         94.78898        7.89672      122.42822
O         94.54069        7.38132      120.28665
H         96.04133        5.04981      122.29344
H         93.36817        3.78951      121.62289
H         93.21105        5.90405      122.86844
H         92.48787        6.03128      121.24529
H         94.56969        7.65653      123.39713
H         95.37880        8.71653      122.21966
N         93.61492        4.64443      119.00877
C         93.83752        4.44418      117.57756
C         94.95936        5.30284      116.99733
O         95.86260        4.73310      116.40218
C         92.49326        4.58288      116.80772
C         91.82407        5.93995      116.89030
C         92.19852        6.97722      116.01955
C         90.79965        6.17433      117.82642
C         91.58525        8.23052      116.10360
C         90.18855        7.42862      117.91019
C         90.58027        8.46138      117.05331
O         89.98323        9.66639      117.14889
H         92.66214        4.87555      119.31812
H         94.14105        3.38184      117.43564
H         91.80543        3.82875      117.25187
H         92.60668        4.28984      115.74194
H         92.97161        6.81641      115.27887
H         90.47997        5.39135      118.50289
H         91.89329        9.02079      115.43105
H         89.41036        7.59781      118.64417
H         90.22477       10.40715      116.57479
N         94.96679        6.66271      117.09260
C         96.01519        7.49695      116.49796
C         97.35352        7.27015      117.19167
O         98.35976        7.07705      116.52476
C         95.59824        8.98919      116.45137
C         95.41227        9.69851      117.80080
C         94.91471       11.10203      117.58844
O         93.72743       11.48052      118.10020
O         95.57812       11.90393      116.94981
H         94.18991        7.11834      117.58784
H         96.11760        7.22368      115.42316
H         94.63852        9.04511      115.88936
H         96.36163        9.54749      115.86484
H         96.37624        9.73860      118.34978
H         94.66741        9.15975      118.41721
N         97.40263        7.21612      118.55047
C         98.59385        6.95789      119.36279
C         99.23125        5.59221      119.08868
O        100.31991        5.35307      119.59196
C         98.15370        7.07064      120.84242
C         99.21053        6.89530      121.93675
C         98.54176        7.11787      123.27038
O         97.63719        6.38883      123.62903
O         98.88212        8.15095      124.05381
H         96.51545        7.36942      119.03936
H         99.34226        7.74858      119.13451
H         97.35877        6.31534      121.00904
H         97.70732        8.08231      120.97433
H        100.02964        7.62472      121.78383
H         99.64466        5.87430      121.92205
N         98.62564        4.64956      118.31092
C         99.19818        3.35260      118.01359
H        100.19270        3.20650      118.48295
H         98.51322        2.55919      118.37979
H         99.30909        3.24617      116.91343
H         97.70339        4.83432      117.91196
Ca        97.69190        7.09257      126.63790
O         99.74994        5.52329      128.87384
H        100.22030        4.65526      128.92245
H        100.28936        6.13357      129.43749
O         99.76526        4.81944      126.11305
H        100.15592        3.91523      126.21012
H         99.39675        4.84340      125.19580
O         95.58123        8.25571      125.39127
H         95.18644        9.06988      124.98863
H         94.83196        7.81981      125.86601

Ca 1.0



