%chk=holoCaM.loop4.water3.frame459.chk
%nprocshared=20
%mem=10GB
%nosave
#b3lyp/svp scf=(tight,noincore,xqc) Test 
#IOP(5/87=12) Density=Current Pop=(MK,readradii) iop(6/33=2) iop(6/42=6)

holoCaM.loop4.water3.frame459 

   -3  1 
C         34.17124       54.02717       50.00938
C         34.68523       53.21559       51.15876
O         34.03053       53.17627       52.18944
H         33.20856       54.51635       50.27542
H         34.90977       54.80541       49.73251
H         33.99245       53.35781       49.14091
N         35.83213       52.48837       51.02906
C         36.30484       51.57573       52.06255
C         37.78857       51.75441       52.38578
O         38.54363       52.25626       51.56560
C         36.02085       50.15146       51.56115
C         36.41301       49.10148       52.54392
O         37.21292       48.23833       52.22197
O         35.88799       49.11146       53.78356
H         36.32330       52.50238       50.12183
H         35.72710       51.73066       53.00115
H         36.55533       49.98083       50.60040
H         34.93020       50.05128       51.37302
N         38.25767       51.33232       53.59827
C         39.65707       51.33654       54.02494
C         40.00596       49.93807       54.55826
O         40.91316       49.29623       54.04987
C         39.88207       52.42185       55.13652
C         39.57253       53.83785       54.58530
C         41.32045       52.35185       55.69414
C         39.64468       54.94649       55.64221
H         37.56499       50.98487       54.27246
H         40.32712       51.58534       53.17152
H         39.18623       52.23114       55.98105
H         38.54127       53.84755       54.18340
H         40.26566       54.08274       53.75189
H         41.46663       53.06879       56.52639
H         41.53276       51.35096       56.12375
H         42.06173       52.56396       54.89545
H         40.67319       55.07141       56.03641
H         39.34839       55.91391       55.18491
H         38.95146       54.72709       56.48187
N         39.32335       49.44905       55.63338
C         39.67345       48.25530       56.41775
C         38.94293       46.95970       56.00966
O         39.25072       45.92404       56.58361
C         39.43638       48.54898       57.92553
C         38.00432       48.91252       58.24949
O         37.10780       49.04777       57.25498
O         37.66781       49.12398       59.40287
H         38.63745       50.09947       56.02284
H         40.76171       48.05856       56.29495
H         40.08351       49.39706       58.23912
H         39.72929       47.65779       58.52134
N         38.01311       46.91993       55.01522
C         37.42492       45.68470       54.48606
C         36.40718       44.94258       55.35441
O         35.94763       43.90070       54.90795
H         37.80322       47.79507       54.53095
H         38.25262       44.98901       54.22500
H         36.89599       45.92820       53.54095
N         35.99569       45.38481       56.57393
C         35.04948       44.64932       57.43013
C         33.64693       44.43206       56.83669
O         33.15703       43.31592       56.93548
C         34.97323       45.27558       58.84954
C         34.63873       46.73833       58.91184
O         34.34449       47.40966       57.79345
O         34.72640       47.33620       59.97092
H         36.41059       46.25647       56.93083
H         35.46782       43.63350       57.61687
H         35.98724       45.17648       59.29390
H         34.26439       44.70222       59.48578
N         32.92842       45.43272       56.25082
C         31.53960       45.30781       55.81568
C         30.63805       46.37221       56.43940
O         29.47951       46.44430       56.05114
H         33.37847       46.33349       56.07906
H         31.12035       44.30340       56.03933
H         31.51594       45.44839       54.71413
N         31.09805       47.24967       57.37970
C         30.34764       48.37371       57.93158
C         31.02943       49.67828       57.52830
O         32.02096       49.62446       56.80780
C         30.26821       48.24578       59.46657
C         29.49563       46.98876       59.89914
C         29.32154       46.89157       61.39719
N         28.62372       45.86050       61.92567
O         29.79499       47.74046       62.13961
H         32.05544       47.15175       57.72154
H         29.31368       48.40490       57.52164
H         29.73258       49.12713       59.87724
H         31.29438       48.22575       59.89749
H         30.02499       46.07926       59.54140
H         28.48416       47.01693       59.43937
H         28.21117       45.13874       61.31674
H         28.48842       45.78731       62.94502
N         30.53763       50.89399       57.91569
C         31.09662       52.16182       57.44816
C         31.61995       52.98810       58.62202
O         30.83638       53.40509       59.46548
C         30.02077       52.92636       56.62767
C         30.57402       54.23795       56.05824
C         29.49251       52.06095       55.46951
H         29.70237       50.93077       58.52114
H         31.94862       51.96637       56.76309
H         29.16122       53.16816       57.29226
H         31.42613       54.03621       55.37534
H         29.78520       54.77530       55.49014
H         30.90853       54.90132       56.87958
H         30.31703       51.78274       54.77868
H         29.02091       51.13128       55.85223
H         28.71686       52.61356       54.89796
N         32.95721       53.24177       58.73779
C         33.56552       54.00443       59.83119
C         33.32887       55.50642       59.66681
O         32.79990       55.92987       58.65276
C         35.09464       53.70886       59.83726
C         35.87029       54.27413       61.00143
N         35.57053       53.92019       62.27259
O         36.79535       55.04424       60.79313
H         33.58410       52.80857       58.04462
H         33.13080       53.64290       60.78871
H         35.53426       54.07272       58.88261
H         35.24987       52.61589       59.87413
H         34.80038       53.26692       62.47339
H         36.11393       54.30108       63.06050
N         33.72803       56.37353       60.64060
C         33.70065       57.83549       60.52368
C         34.77388       58.39361       59.57385
O         34.77847       59.60065       59.37464
C         33.79223       58.48031       61.93530
C         34.96422       57.98261       62.75487
C         34.72765       57.17160       63.88013
C         36.28602       58.28416       62.40024
C         35.79301       56.64746       64.61401
C         37.35320       57.75743       63.13644
C         37.10902       56.92863       64.23982
O         38.12747       56.39357       64.94220
H         34.05126       55.96118       61.52268
H         32.71046       58.14214       60.11788
H         32.85189       58.19973       62.45898
H         33.80100       59.59047       61.87431
H         33.71649       56.92190       64.17666
H         36.49122       58.91861       61.55098
H         35.59333       56.00836       65.46458
H         38.36984       57.98432       62.84412
H         39.05266       56.54232       64.70067
N         35.68106       57.59899       58.92587
C         36.63962       58.09236       57.93153
C         36.23823       57.63332       56.53293
O         36.97532       57.88667       55.58996
C         38.06600       57.56803       58.24046
C         38.61778       57.94227       59.62397
C         38.81928       59.41835       59.86281
O         38.57809       60.24639       58.99919
O         39.30046       59.83044       61.05068
H         35.65587       56.58264       59.07287
H         36.65084       59.20067       57.90145
H         38.77900       57.93854       57.47052
H         38.05013       56.45722       58.17812
H         39.60619       57.44959       59.74714
H         37.94301       57.52472       60.39116
N         35.06614       56.97110       56.32530
C         34.61743       56.44734       55.04927
C         33.35173       57.17436       54.64217
O         33.32724       57.77288       53.57573
C         34.36398       54.93466       55.20207
C         35.65019       54.18060       55.57936
C         35.43151       52.71397       55.82293
O         36.45988       51.95838       56.24564
O         34.33512       52.20109       55.67211
H         34.43564       56.81042       57.11462
H         35.38233       56.59944       54.25432
H         33.95889       54.52977       54.25460
H         33.61305       54.76728       56.00414
H         36.06634       54.60740       56.51550
H         36.39555       54.30373       54.76893
N         32.26322       57.18802       55.46010
C         31.04787       57.89623       55.13224
H         30.31104       57.77525       55.95576
H         31.26346       58.97858       55.00824
H         30.61011       57.48753       54.19826
H         32.29600       56.69260       56.35820
Ca        34.94891       49.48741       57.42719
O         34.03644       50.49189       59.89193
H         33.51906       49.65057       59.85680
H         34.98612       50.20755       59.90255
O         33.78101       47.45829       53.93195
H         34.45405       46.76996       53.70125
H         32.95326       47.16729       53.47684
O         33.10477       50.36396       53.82994
H         32.94684       49.89907       52.97083
H         32.67910       51.24968       53.71382

Ca 1.0



