%chk=holoCaM.loop3.water3.frame329.chk
%nprocshared=20
%mem=10GB
%nosave
#b3lyp/svp scf=(tight,noincore,xqc) Test 
#IOP(5/87=12) Density=Current Pop=(MK,readradii) iop(6/33=2) iop(6/42=6)

holoCaM.loop3.water3.frame329 

   0  1 
C         99.80274       25.11573        8.40271
C        100.50692       24.00126        9.11363
O        100.21788       22.84633        8.83293
H         98.71392       25.05630        8.60315
H        100.17695       26.10689        8.73513
H         99.98299       25.02235        7.31072
N        101.47464       24.27190       10.03213
C        102.24543       23.22202       10.67634
C        101.36569       22.35832       11.56329
O        100.77874       22.84859       12.51705
C        103.42401       23.82692       11.44053
C        104.41178       22.79586       11.87653
O        105.52299       23.16631       12.20407
O        104.15457       21.47348       11.81351
H        101.71324       25.25733       10.22491
H        102.69368       22.60899        9.86023
H        103.10703       24.45891       12.29680
H        103.96598       24.47261       10.71245
N        101.21584       21.04531       11.25260
C        100.32550       20.11787       11.93162
C        100.72355       19.88109       13.38181
O         99.85897       20.00530       14.23782
C        100.23116       18.82891       11.08497
C         99.06690       17.91353       11.48883
C         98.71758       16.95818       10.33443
C         97.46707       16.12742       10.64672
N         97.03397       15.37572        9.46799
H        101.71340       20.70148       10.42329
H         99.30431       20.56103       11.90872
H        101.19260       18.27106       11.04768
H        100.00604       19.18365       10.05303
H         98.16680       18.54300       11.66074
H         99.30530       17.36931       12.42807
H         99.57528       16.29201       10.09599
H         98.49244       17.57533        9.43531
H         96.63858       16.80495       10.95294
H         97.68185       15.43123       11.48654
H         97.79169       14.73256        9.14431
H         96.18528       14.81553        9.71055
H         96.78276       16.03814        8.69697
N        102.01276       19.60284       13.74447
C        102.42076       19.40983       15.14272
C        103.15517       20.61330       15.72612
O        103.48911       20.57217       16.90263
C        103.27075       18.12587       15.29835
C        104.61783       18.16253       14.61657
O        105.44487       17.10694       14.73332
O        104.97952       19.13447       13.97485
H        102.73102       19.58497       13.00641
H        101.51781       19.28089       15.77770
H        102.69684       17.25831       14.91116
H        103.45801       17.95592       16.38118
N        103.43083       21.72139       14.98461
C        104.10699       22.88953       15.51784
C        105.49325       22.57092       16.02775
O        105.75600       22.83243       17.19331
H        103.12933       21.76262       14.00618
H        103.49193       23.32650       16.33518
H        104.19601       23.65684       14.71859
N        106.44156       22.03553       15.20369
C        107.82180       21.79146       15.62790
C        108.81593       22.67042       14.87384
O        109.99517       22.62487       15.19497
C        108.18412       20.29496       15.48952
C        108.37036       19.83017       14.05907
N        109.55223       19.30733       13.65473
O        107.45400       19.91881       13.25992
H        106.17297       21.81757       14.23472
H        107.92334       22.04935       16.70415
H        107.39829       19.68336       15.98356
H        109.13359       20.11994       16.04004
H        110.34470       19.21600       14.30663
H        109.67761       18.98898       12.68242
N        108.41687       23.47753       13.84890
C        109.29923       24.33122       13.08196
C        109.42341       23.87397       11.64398
O        110.00954       24.61710       10.86971
H        107.43404       23.50209       13.56755
H        110.32320       24.37232       13.51095
H        108.87873       25.35991       13.11182
N        108.98596       22.64325       11.22258
C        109.20571       22.15158        9.86196
C        107.89110       21.64681        9.22297
O        106.81362       22.20280        9.87988
C        110.22499       20.99531        9.86649
C        111.54524       21.39582       10.48727
C        111.65646       21.61281       11.87485
C        112.68365       21.55377        9.68233
C        112.87201       21.99987       12.43911
C        113.90092       21.94325       10.24921
C        113.99738       22.17100       11.63001
O        115.16306       22.55197       12.18882
H        108.54722       21.99719       11.89450
H        109.61792       22.97075        9.23239
H        110.38056       20.68993        8.80860
H        109.82781       20.11282       10.41354
H        110.80712       21.48234       12.52974
H        112.62684       21.38955        8.61375
H        112.93624       22.16790       13.50726
H        114.76678       22.07103        9.61313
H        115.96460       22.68592       11.66384
N        107.80918       21.98448        7.79667
C        106.64395       21.41076        7.07331
C        107.11341       20.40184        6.03168
O        107.95492       20.74341        5.21126
C        105.82736       22.57138        6.40490
C        105.10345       23.39883        7.50460
C        104.79796       22.04278        5.37829
C        104.34143       24.62405        6.99362
H        108.71780       21.80306        7.31135
H        105.94610       20.88337        7.76479
H        106.53665       23.22204        5.84728
H        105.84825       23.77446        8.23295
H        104.38417       22.74166        8.04338
H        104.27462       22.87295        4.86463
H        105.29639       21.47390        4.56680
H        104.04826       21.39434        5.86985
H        103.87737       25.14914        7.85592
H        105.03772       25.32135        6.48337
H        103.51866       24.34684        6.30473
N        106.52517       19.17113        5.94811
C        106.83367       18.21293        4.89004
C        105.70224       18.17961        3.87748
O        104.67800       18.81168        4.10161
C        107.10526       16.82442        5.48909
O        105.96410       16.35410        6.15603
H        105.75762       18.94372        6.59767
H        107.74018       18.54007        4.33668
H        107.95263       16.89832        6.20643
H        107.37916       16.11929        4.67287
H        106.17081       15.42640        6.44174
N        105.84766       17.51976        2.69047
C        104.81973       17.57514        1.65408
C        103.54755       16.84259        2.04613
O        102.53377       17.05631        1.39536
C        105.34599       17.03734        0.32361
H        106.74169       17.04382        2.49347
H        104.57149       18.65016        1.49828
H        106.24729       17.61191        0.01986
H        105.61384       15.96389        0.41597
H        104.57670       17.15624       -0.46941
N        103.51305       15.96792        3.09270
C        102.27176       15.37950        3.58009
C        101.42018       16.48313        4.16929
O        100.27315       16.65055        3.77991
C        102.56442       14.32736        4.65905
H        104.38888       15.73467        3.58367
H        101.73911       14.85879        2.75282
H        103.10994       14.76623        5.52147
H        101.61322       13.88555        5.02671
H        103.18427       13.51202        4.22950
N        101.96926       17.30429        5.10721
C        101.27375       18.41643        5.74658
C        100.85630       19.50073        4.75896
O        100.08443       20.36422        5.15330
C        102.20908       19.06007        6.78993
C        102.56821       18.11165        7.94284
C        103.69623       18.69295        8.73947
O        104.72925       18.06166        8.89021
O        103.59756       19.93040        9.24852
H        102.94848       17.12041        5.37256
H        100.35986       18.02134        6.24372
H        101.75222       19.97713        7.22557
H        103.13716       19.35475        6.25552
H        102.89363       17.11658        7.57508
H        101.67269       17.96182        8.58029
N        101.34523       19.55361        3.48612
C        100.97028       20.57099        2.52517
H        100.21222       21.27659        2.92471
H        101.87125       21.15002        2.23276
H        100.54965       20.08162        1.62193
H        102.03713       18.86375        3.17320
Ca       105.82577       20.42344       10.83551
O        107.91950       18.42607        9.21795
H        107.33766       18.02353        8.52697
H        108.83422       18.33399        8.85160
O        103.77705       17.19673       11.64339
H        103.24146       16.79279       12.37094
H        104.04496       16.42938       11.07825
O        107.40932       16.94064       11.79908
H        107.54422       15.96077       11.84146
H        106.53506       17.08992       12.23781

Ca 1.0



