%chk=holoCaM-CaMKII.loop1.water2.frame248.chk
%nprocshared=20
%mem=10GB
%nosave
#b3lyp/svp scf=(tight,noincore,xqc) Test 
#IOP(5/87=12) Density=Current Pop=(MK,readradii) iop(6/33=2) iop(6/42=6)

holoCaM-CaMKII.loop1.water2.frame248 

   0  1 
C         95.69986       -2.23254       48.33470
C         96.04026       -3.41240       47.47425
O         95.30076       -3.67973       46.54476
H         94.71288       -2.39473       48.81271
H         96.45318       -2.07908       49.13451
H         95.65514       -1.31848       47.70593
N         97.16812       -4.13964       47.70867
C         97.59984       -5.29281       46.91859
C         96.75117       -6.53056       47.25008
O         97.23780       -7.42202       47.93352
C         99.10285       -5.53981       47.21469
C         99.74686       -6.55022       46.30953
O         99.11908       -7.09015       45.41386
O        101.05220       -6.82889       46.46647
H         97.78673       -3.81538       48.46875
H         97.54703       -5.04227       45.83774
H         99.23729       -5.84819       48.27435
H         99.66126       -4.59284       47.06499
N         95.45816       -6.64302       46.82821
C         94.57363       -7.72599       47.25667
C         94.79676       -9.02559       46.48998
O         94.15878      -10.01158       46.83333
C         93.09592       -7.27834       47.18288
C         92.86588       -6.00701       48.02378
C         91.38448       -5.62259       48.10822
C         91.16245       -4.33640       48.92749
N         91.63483       -3.13861       48.22696
H         95.06358       -5.91248       46.22940
H         94.77247       -7.93000       48.33313
H         92.45928       -8.09607       47.58679
H         92.79891       -7.08725       46.12784
H         93.44000       -5.17680       47.57736
H         93.23981       -6.17647       49.05773
H         90.85343       -6.45533       48.61849
H         90.94649       -5.49614       47.09466
H         91.66461       -4.42580       49.91714
H         90.07203       -4.22146       49.11031
H         92.65573       -3.18806       48.02452
H         91.10713       -3.01986       47.33175
H         91.46290       -2.30153       48.82935
N         95.70026       -9.11648       45.47138
C         96.02037      -10.36390       44.77336
C         97.44256      -10.84124       45.09318
O         97.80216      -11.92825       44.66406
C         95.75650      -10.23974       43.25025
C         96.55568       -9.17538       42.54279
O         96.46353       -9.04969       41.33278
O         97.38161       -8.37446       43.23380
H         96.21764       -8.27011       45.21299
H         95.35714      -11.17860       45.13798
H         94.67858      -10.02742       43.08502
H         95.98677      -11.21976       42.77685
N         98.27724      -10.12213       45.90003
C         99.55138      -10.60751       46.40293
C        100.59896      -10.87677       45.34689
O        101.10737      -11.98779       45.30080
H         97.97499       -9.21143       46.26225
H         99.37228      -11.52650       47.00278
H         99.97022       -9.84101       47.09268
N        101.02657       -9.88553       44.51607
C        102.17492      -10.01794       43.61600
C        103.25322       -8.99408       43.96454
O        104.12284       -8.73382       43.14429
C        101.73264       -9.97368       42.13693
C        101.05297       -8.71831       41.67700
O        100.91067       -7.65448       42.48174
O        100.52861       -8.70139       40.57493
H        100.55333       -8.97385       44.56721
H        102.64955      -11.01732       43.72878
H        101.00803      -10.80734       41.99927
H        102.60069      -10.16959       41.47213
N        103.30954       -8.44462       45.21486
C        104.34430       -7.53094       45.66777
C        104.25428       -6.11658       45.12027
O        105.06399       -5.30819       45.54402
H        102.63288       -8.75209       45.92756
H        105.34611       -7.96665       45.45907
H        104.24892       -7.43167       46.77135
N        103.32561       -5.73201       44.19302
C        103.23719       -4.36024       43.67947
C        101.81577       -3.80752       43.76162
O        100.88242       -4.53975       44.04353
C        103.76250       -4.30547       42.21572
C        105.28470       -4.44142       42.18892
O        103.22168       -5.32125       41.40593
H        102.68116       -6.43068       43.81006
H        103.85555       -3.67482       44.29813
H        103.52817       -3.31564       41.76602
H        102.30102       -5.51099       41.70959
H        105.64705       -4.37242       41.14116
H        105.74949       -3.61611       42.77025
H        105.60668       -5.41460       42.61419
N        101.61509       -2.46634       43.55344
C        100.31127       -1.80561       43.60059
C        100.12147       -1.00572       42.31282
O        100.87505       -0.07348       42.07650
C        100.23076       -0.88189       44.85951
C        100.33262       -1.74414       46.14678
C         98.92941       -0.05110       44.86480
C        100.38178       -0.93934       47.44749
H        102.43978       -1.87201       43.38896
H         99.49895       -2.55652       43.68655
H        101.08825       -0.17258       44.83104
H        101.26504       -2.34619       46.11410
H         99.46751       -2.43999       46.19086
H         98.90210        0.64722       45.72467
H         98.86483        0.58802       43.96183
H         98.03868       -0.71207       44.90449
H        100.49366       -1.63781       48.30405
H        101.24980       -0.24693       47.43931
H         99.44854       -0.36513       47.61244
N         99.12215       -1.31999       41.43608
C         98.86354       -0.55507       40.21167
C         98.02511        0.67907       40.50852
O         97.60306        0.87246       41.63535
C         98.11962       -1.41999       39.14899
C         98.96095       -2.59711       38.65773
O         96.86510       -1.85035       39.61725
H         98.53562       -2.13567       41.64688
H         99.83069       -0.23815       39.76255
H         97.93309       -0.81069       38.24105
H         96.98549       -2.68295       40.14235
H         99.17044       -3.27262       39.50066
H         98.40337       -3.15982       37.87898
H         99.91629       -2.23414       38.22311
N         97.70310        1.53730       39.49996
C         96.74311        2.63209       39.63606
C         95.37195        2.07561       40.00286
O         94.75077        2.57697       40.92928
C         96.64161        3.44322       38.31578
C         97.95378        4.17780       38.00679
O         96.30278        2.59720       37.24553
H         98.11824        1.36541       38.57325
H         97.07108        3.34026       40.43051
H         95.84470        4.21197       38.45097
H         96.02411        3.17913       36.49118
H         98.79389        3.46748       37.86354
H         97.84070        4.77627       37.07808
H         98.20681        4.87122       38.83683
N         94.86661        1.00313       39.32802
C         93.56570        0.38543       39.58428
C         93.39376        0.03368       41.05150
O         92.42658        0.47739       41.65485
C         93.43139       -0.86869       38.68701
C         92.09741       -1.61596       38.82908
C         92.05117       -2.78956       37.83387
C         90.73554       -3.58323       37.87092
N         90.54828       -4.29806       39.13444
H         95.46080        0.58422       38.59577
H         92.76397        1.10410       39.30185
H         94.25748       -1.57765       38.91527
H         93.54141       -0.54122       37.62932
H         91.25816       -0.91972       38.61421
H         92.00110       -1.99134       39.86905
H         92.90090       -3.48336       38.01912
H         92.16235       -2.37601       36.80731
H         90.76444       -4.32957       37.04570
H         89.87540       -2.90285       37.68537
H         89.67394       -4.86822       39.07246
H         91.35501       -4.94171       39.30563
H         90.44798       -3.62998       39.93034
N         94.30392       -0.74744       41.69146
C         94.19629       -1.11808       43.09868
C         94.14885        0.12215       43.97426
O         93.17917        0.29411       44.70064
C         95.36497       -2.04439       43.50134
C         95.25822       -3.40820       42.79032
C         96.36062       -4.34612       43.18374
O         97.52464       -4.06228       42.95878
O         96.06438       -5.52990       43.75146
H         95.11356       -1.07611       41.15142
H         93.24998       -1.68313       43.26002
H         95.31919       -2.21659       44.59342
H         96.33766       -1.55655       43.26892
H         95.28956       -3.28092       41.69032
H         94.28489       -3.87602       43.05403
N         95.14132        1.04870       43.93410
C         95.09520        2.26618       44.71353
H         94.18872        2.85166       44.44657
H         95.07682        2.02546       45.79694
H         95.99015        2.88776       44.49723
H         95.94300        0.89832       43.31398
Ca        98.82706       -6.90583       42.38351
O         97.09019       -5.90928       39.97032
H         96.57311       -6.75280       39.94288
H         96.43314       -5.20956       39.72882
O        100.30209       -5.26760       40.31112
H        100.92227       -4.50063       40.21399
H        100.48905       -5.83568       39.52346

Ca 1.0



