%chk=holoCaM.loop3.water2.frame313.chk
%nprocshared=20
%mem=10GB
%nosave
#b3lyp/svp scf=(tight,noincore,xqc) Test 
#IOP(5/87=12) Density=Current Pop=(MK,readradii) iop(6/33=2) iop(6/42=6)

holoCaM.loop3.water2.frame313 

   0  1 
C         93.13428       44.01350       72.30876
C         92.75220       45.15935       71.43104
O         91.74575       45.80094       71.70301
H         94.13982       44.19836       72.73914
H         92.40233       43.90325       73.13813
H         93.14561       43.07902       71.71169
N         93.51478       45.48299       70.34728
C         93.16187       46.59484       69.48383
C         92.22097       46.07923       68.41880
O         92.65812       45.33429       67.55159
C         94.42987       47.25161       68.89809
C         94.18913       48.64179       68.38362
O         95.13046       49.29657       67.97656
O         92.97726       49.21860       68.47778
H         94.35564       44.92370       70.13480
H         92.66229       47.36066       70.11888
H         94.88930       46.60491       68.11870
H         95.17573       47.36022       69.71091
N         90.88997       46.36425       68.47528
C         89.92260       45.75582       67.56536
C         89.74739       46.56753       66.29396
O         89.03700       46.10235       65.41236
C         88.58089       45.51307       68.28404
C         88.74943       44.52489       69.45292
C         87.41893       44.28144       70.17705
C         87.55673       43.33705       71.38560
N         87.93761       41.97644       70.99916
H         90.54168       46.94006       69.25729
H         90.29527       44.75421       67.24977
H         87.85405       45.07414       67.56506
H         88.17415       46.48155       68.64909
H         89.48238       44.92672       70.18454
H         89.13973       43.56775       69.04685
H         86.66686       43.87019       69.46875
H         87.04567       45.25884       70.55317
H         86.57262       43.29504       71.90247
H         88.30138       43.74745       72.10351
H         87.24084       41.58522       70.32435
H         88.89310       41.95879       70.57851
H         87.95037       41.37401       71.85380
N         90.40114       47.74964       66.09582
C         90.39119       48.46917       64.82591
C         91.76863       48.42670       64.16441
O         91.87720       48.85577       63.02498
C         89.83780       49.90246       64.97946
C         90.55476       50.73859       65.99790
O         90.45380       50.43095       67.30452
O         91.16223       51.74096       65.65718
H         90.99252       48.12440       66.84881
H         89.71781       47.95552       64.10571
H         88.77031       49.85728       65.28467
H         89.88169       50.40213       63.98716
N         92.84534       47.85271       64.78032
C         94.10538       47.57799       64.11860
C         94.82536       48.79308       63.60042
O         95.14166       48.80970       62.41834
H         92.77231       47.50520       65.74423
H         93.92244       46.86804       63.28154
H         94.78129       47.07042       64.84135
N         95.17783       49.81800       64.42896
C         96.05046       50.90944       63.99377
C         97.34362       50.96879       64.81087
O         98.20650       51.76155       64.46213
C         95.30614       52.26061       63.99526
C         95.05786       52.82228       65.37135
N         95.55588       54.03308       65.71852
O         94.39944       52.18785       66.17576
H         94.84158       49.79413       65.40209
H         96.35215       50.73273       62.93853
H         94.33913       52.14421       63.45877
H         95.91565       52.99177       63.42170
H         96.10835       54.59164       65.05173
H         95.38568       54.42162       66.65621
N         97.54333       50.18086       65.91392
C         98.75844       50.18216       66.71113
C         98.56229       50.75385       68.10791
O         99.52535       50.72662       68.86133
H         96.81585       49.53039       66.22471
H         99.55813       50.78249       66.22617
H         99.12571       49.13507       66.77688
N         97.40334       51.37116       68.50022
C         97.27789       52.11590       69.75613
C         96.06330       51.70121       70.57442
O         94.96562       51.69171       70.03884
C         97.16596       53.62148       69.45396
C         98.44630       54.16734       68.86615
C         98.81054       53.92015       67.52977
C         99.30258       54.92849       69.67770
C        100.01422       54.42211       67.02250
C        100.50608       55.42066       69.17278
C        100.86734       55.16929       67.84270
O        102.02920       55.63911       67.34628
H         96.61459       51.42835       67.83984
H         98.18251       51.99217       70.39172
H         96.98347       54.12607       70.42846
H         96.30006       53.85966       68.80053
H         98.16593       53.34541       66.87776
H         99.04744       55.12612       70.71129
H        100.28608       54.22753       65.99237
H        101.15746       55.99361       69.82000
H        102.64596       56.15389       67.88670
N         96.18443       51.42315       71.91133
C         95.05305       51.08583       72.78028
C         94.90471       52.08459       73.93278
O         95.82582       52.24758       74.71967
C         95.16950       49.62156       73.31094
C         96.43042       49.36766       74.18755
C         95.11401       48.65423       72.11867
C         96.49233       47.96457       74.78901
H         97.12190       51.46319       72.33764
H         94.10735       51.12133       72.19805
H         94.26967       49.42745       73.93709
H         96.42880       50.04752       75.05820
H         97.35689       49.54608       73.60222
H         94.20047       48.84606       71.51769
H         96.00639       48.78448       71.46994
H         95.06023       47.59884       72.45066
H         96.59525       47.18939       74.00483
H         97.38174       47.89230       75.45062
H         95.58312       47.76834       75.39640
N         93.74382       52.78181       74.10573
C         93.48441       53.62266       75.27671
C         93.17982       52.75957       76.50145
O         93.13877       51.54565       76.38170
C         92.29706       54.56731       74.99566
O         91.12856       53.83646       74.74837
H         93.00163       52.68323       73.40147
H         94.36943       54.26808       75.46857
H         92.54098       55.18992       74.10673
H         92.13551       55.24103       75.86594
H         90.40998       54.50338       74.59515
N         92.91904       53.33072       77.71309
C         92.48325       52.57285       78.88755
C         91.13333       51.92320       78.63431
O         90.98205       50.73947       78.89977
C         92.36873       53.49372       80.10708
H         93.00438       54.35483       77.79733
H         93.23859       51.79599       79.14471
H         93.35743       53.94869       80.32820
H         91.62882       54.30307       79.93221
H         92.05317       52.90596       80.99725
N         90.11531       52.64807       78.08470
C         88.79416       52.10601       77.77089
C         88.90012       50.84567       76.93454
O         88.29867       49.84470       77.29871
C         87.96020       53.15741       77.02727
H         90.30748       53.63189       77.83898
H         88.26031       51.85994       78.71601
H         88.44967       53.44648       76.07242
H         86.94748       52.75916       76.80314
H         87.84565       54.06594       77.65649
N         89.70252       50.80750       75.83432
C         89.91787       49.60203       75.03766
C         90.39377       48.46510       75.92900
O         89.75142       47.42384       75.94600
C         90.91684       49.87446       73.88704
C         90.31643       50.84355       72.84857
C         91.24258       51.08581       71.69189
O         91.62574       50.15363       71.00417
O         91.62085       52.34033       71.38018
H         90.22183       51.66198       75.59280
H         88.95578       49.28542       74.57556
H         91.13547       48.91393       73.37007
H         91.87215       50.27640       74.29090
H         90.07068       51.81724       73.31992
H         89.37674       50.40665       72.44849
N         91.46948       48.61274       76.74696
C         91.88000       47.58268       77.67640
H         92.74041       47.93960       78.28203
H         91.04328       47.34583       78.36985
H         92.17796       46.66642       77.12659
H         91.98663       49.49789       76.74639
Ca        92.79590       51.45358       68.25829
O         90.40061       53.19798       68.72262
H         90.27587       53.43577       67.76982
H         89.72084       53.73100       69.20534
O         93.42929       54.22558       69.07738
H         93.83554       54.89408       68.47148
H         93.82150       54.42108       69.96497

Ca 1.0



