%chk=holoCaM.loop2.water2.frame290.chk
%nprocshared=20
%mem=10GB
%nosave
#b3lyp/svp scf=(tight,noincore,xqc) Test 
#IOP(5/87=12) Density=Current Pop=(MK,readradii) iop(6/33=2) iop(6/42=6)

holoCaM.loop2.water2.frame290 

   -2  1 
C         32.09095       56.22900       60.40919
C         32.45091       54.95855       59.69362
O         31.67485       54.01544       59.69919
H         31.09471       56.15172       60.89224
H         32.85688       56.46671       61.17555
H         32.05607       57.06055       59.67031
N         33.61488       54.89940       58.99781
C         33.98439       53.78977       58.12782
C         34.35630       52.52612       58.90391
O         35.24135       52.59877       59.74557
C         35.19524       54.22171       57.27276
C         35.41953       53.34133       56.08347
O         36.39042       53.53595       55.37211
O         34.51593       52.40478       55.73662
H         34.21392       55.74067       59.00914
H         33.13055       53.61139       57.43642
H         36.10623       54.25468       57.90995
H         35.03005       55.24036       56.86317
N         33.77521       51.32118       58.61981
C         34.17362       50.06016       59.24862
C         34.72518       49.03768       58.24901
O         35.16636       47.98898       58.69950
C         32.96896       49.45448       59.97752
H         33.03582       51.29143       57.90943
H         34.97478       50.24194       59.99720
H         32.15335       49.22992       59.25545
H         33.25445       48.51070       60.49138
H         32.58593       50.16364       60.74055
N         34.70423       49.23754       56.89597
C         35.14916       48.23759       55.92055
C         36.20054       48.75228       54.93398
O         36.68869       47.94831       54.15138
C         33.91591       47.69624       55.16329
C         33.06590       48.78791       54.56879
O         33.53694       49.56771       53.76100
O         31.78173       48.92449       54.95212
H         34.28538       50.09747       56.52796
H         35.62177       47.37472       56.43797
H         33.28581       47.12929       55.88141
H         34.23459       46.99168       54.36454
N         36.58946       50.05644       54.88392
C         37.57792       50.57153       53.94929
C         37.23558       50.28389       52.50185
O         38.06896       49.70381       51.82015
H         36.18062       50.72904       55.53643
H         38.57203       50.13368       54.18762
H         37.66000       51.67141       54.08045
N         36.04075       50.66179       51.95864
C         35.70367       50.44916       50.54958
C         35.44450       51.76400       49.81096
O         35.02735       51.71750       48.66177
C         34.54707       49.43426       50.39094
C         33.17292       49.85789       50.83554
N         32.13233       49.01894       50.62469
O         32.98201       50.94161       51.36347
H         35.34672       51.11914       52.56616
H         36.55441       49.96692       50.02084
H         34.81750       48.49585       50.92393
H         34.46430       49.19208       49.30914
H         32.27733       48.10395       50.17399
H         31.17664       49.27997       50.89127
N         35.74692       52.97241       50.37274
C         35.62112       54.24249       49.67132
C         34.20361       54.76226       49.51206
O         34.06158       55.82870       48.93044
H         36.19334       53.00063       51.29825
H         36.11627       54.16028       48.67919
H         36.16639       55.01668       50.25281
N         33.11443       54.10498       50.00212
C         31.74392       54.60197       49.87675
C         31.08882       54.74442       51.24596
O         31.69848       54.42033       52.25219
C         30.92203       53.61881       48.99663
C         31.46018       53.55461       47.56763
O         30.93774       52.32570       49.54582
H         33.24782       53.20593       50.47915
H         31.71972       55.60310       49.39301
H         29.86949       53.96910       48.89604
H         30.23999       52.30292       50.25069
H         30.83301       52.86399       46.96394
H         31.41973       54.56191       47.10054
H         32.50692       53.18624       47.55191
N         29.79708       55.16281       51.33408
C         28.98698       55.08858       52.54301
C         28.01597       53.94723       52.32597
O         27.29759       53.93944       51.33468
C         28.29046       56.45585       52.84343
C         29.32673       57.41117       53.49575
C         27.06069       56.28255       53.76637
C         28.81763       58.83374       53.74302
H         29.30961       55.43283       50.46601
H         29.59463       54.81980       53.43524
H         27.91401       56.88451       51.88809
H         30.22300       57.48479       52.84431
H         29.64652       56.98495       54.47415
H         27.34725       55.83617       54.74131
H         26.54410       57.24690       53.94046
H         26.29963       55.63327       53.28435
H         28.53287       59.31169       52.78336
H         27.95454       58.85300       54.43849
H         29.62540       59.43265       54.21517
N         27.93306       52.95370       53.25391
C         27.01883       51.83318       53.15820
C         25.82675       52.09793       54.05850
O         25.79121       53.11846       54.72943
C         27.73854       50.50876       53.51804
C         28.76982       50.09165       52.49358
O         29.94518       50.73726       52.33714
O         28.55282       49.10653       51.80618
H         28.46865       53.04484       54.12715
H         26.60497       51.74943       52.12907
H         26.97321       49.70519       53.54271
H         28.19547       50.55724       54.53181
N         24.76857       51.24368       54.06220
C         23.54354       51.48628       54.81369
C         23.75451       51.60901       56.31886
O         23.26261       52.59046       56.85829
C         22.47146       50.43556       54.46194
C         21.20718       50.60240       55.28002
C         20.55035       51.84613       55.37407
C         20.68343       49.50136       55.97785
C         19.40928       51.98324       56.16939
C         19.53063       49.63929       56.75480
C         18.89833       50.88040       56.85694
H         24.81497       50.40808       53.45894
H         23.13097       52.45979       54.46628
H         22.88038       49.41216       54.60231
H         22.22500       50.55400       53.38402
H         20.92690       52.71787       54.85593
H         21.16362       48.53278       55.91627
H         18.92270       52.94646       56.25488
H         19.13125       48.78331       57.28222
H         18.01268       50.98742       57.46911
N         24.43216       50.70699       57.09207
C         24.57797       50.87428       58.53147
C         25.38313       52.12283       58.87095
O         25.12593       52.71827       59.90776
C         25.22561       49.55834       58.97988
C         26.04555       49.16008       57.77319
C         25.10704       49.51428       56.61873
H         23.59103       50.95314       59.04046
H         25.76023       49.59379       59.95339
H         24.41866       48.79350       59.05867
H         26.92709       49.83658       57.73839
H         26.41387       48.11204       57.76415
H         25.73581       49.67343       55.72267
H         24.34578       48.72563       56.43556
N         26.35161       52.59400       58.03822
C         27.12739       53.80175       58.31928
C         26.31026       55.06674       58.09298
O         26.65501       56.09334       58.66062
C         28.37873       53.83619       57.42646
C         29.27441       52.61454       57.70916
C         30.35331       52.44410       56.69330
O         30.49626       53.31611       55.68462
O         30.99201       51.40623       56.67761
H         26.55600       52.06467       57.17808
H         27.47604       53.76954       59.37572
H         28.96758       54.76487       57.59443
H         28.03865       53.82517       56.36663
H         28.67148       51.68769       57.63499
H         29.69452       52.66078       58.73393
N         25.25718       55.08204       57.22652
C         24.45797       56.25339       56.93151
H         23.39523       56.04008       57.17318
H         24.78126       57.14483       57.50666
H         24.53287       56.48456       55.84720
H         25.00939       54.22607       56.72464
Ca        30.79868       52.22139       53.77340
O         34.19024       53.67495       53.01686
H         35.07597       53.30985       53.25087
H         34.38052       54.59708       52.71187
O         32.67679       55.13315       55.06609
H         31.82384       55.54344       54.77764
H         33.23337       55.89801       55.35508

Ca 1.0



