%chk=holoCaM-CaMKII.loop3.water2.frame333.chk
%nprocshared=20
%mem=10GB
%nosave
#b3lyp/svp scf=(tight,noincore,xqc) Test 
#IOP(5/87=12) Density=Current Pop=(MK,readradii) iop(6/33=2) iop(6/42=6)

holoCaM-CaMKII.loop3.water2.frame333 

   0  1 
C         22.21439       59.43984       64.12585
C         21.04103       58.70860       64.69415
O         19.92026       58.96912       64.27678
H         22.91921       58.71101       63.67283
H         21.88351       60.15018       63.33758
H         22.72584       60.00301       64.93208
N         21.22539       57.73639       65.63158
C         20.10714       56.95798       66.13315
C         19.25122       57.81022       67.05934
O         19.72810       58.23501       68.10295
C         20.58721       55.67064       66.82331
C         19.45325       54.70553       67.01292
O         18.20848       55.03274       66.60851
O         19.67804       53.59646       67.45859
H         22.18653       57.49827       65.92232
H         19.53334       56.62613       65.23663
H         21.09463       55.89352       67.78722
H         21.31566       55.16464       66.15178
N         17.98575       58.14369       66.69428
C         17.14082       59.06661       67.44043
C         16.69461       58.50037       68.77865
O         16.92080       59.15486       69.78711
C         15.93984       59.47175       66.56492
C         15.14287       60.63973       67.16174
C         14.09767       61.13974       66.15382
C         13.26031       62.32003       66.67371
N         14.07104       63.50941       66.94838
H         17.64603       57.79828       65.78725
H         17.72420       60.00118       67.60849
H         15.27664       58.60073       66.37120
H         16.35353       59.81953       65.59131
H         15.85266       61.46376       67.38432
H         14.64893       60.32269       68.10579
H         13.40731       60.30305       65.91088
H         14.60771       61.45097       65.21480
H         12.70970       62.01935       67.59156
H         12.51189       62.57397       65.89048
H         13.43620       64.29922       67.20562
H         14.71673       63.34297       67.75218
H         14.61791       63.78151       66.09920
N         16.06389       57.29088       68.86847
C         15.58314       56.74058       70.13856
C         16.52430       55.69649       70.71539
O         16.24660       55.20335       71.80078
C         14.14090       56.19645       69.99351
C         13.99534       54.96984       69.12524
O         12.77544       54.42850       68.94966
O         14.96173       54.44036       68.60326
H         15.95984       56.72825       68.01082
H         15.54052       57.55165       70.89856
H         13.49378       57.00253       69.58721
H         13.75731       55.92593       71.00150
N         17.67441       55.33543       70.07924
C         18.62399       54.40485       70.65265
C         18.04574       53.02187       70.81493
O         18.00564       52.53889       71.93765
H         17.92431       55.76498       69.17885
H         18.96658       54.79948       71.63532
H         19.51690       54.33340       69.99684
N         17.63723       52.30013       69.72908
C         17.20830       50.90579       69.82595
C         18.23096       49.96271       69.20320
O         18.01080       48.75979       69.25634
C         15.80315       50.69956       69.20808
C         15.72711       50.74949       67.69564
N         14.54543       50.52826       67.07754
O         16.72396       50.95114       67.02046
H         17.69664       52.73404       68.79710
H         17.12793       50.61776       70.89622
H         15.10142       51.44370       69.64391
H         15.44947       49.68732       69.50090
H         13.69274       50.33721       67.62298
H         14.48403       50.53830       66.04910
N         19.36633       50.42555       68.59697
C         20.36613       49.56323       67.99868
C         20.56818       49.80344       66.51463
O         21.41717       49.12315       65.96190
H         19.56274       51.43256       68.56978
H         20.10436       48.49210       68.12895
H         21.33213       49.74074       68.51901
N         19.86444       50.73765       65.79625
C         20.08017       50.92329       64.35642
C         19.49110       52.22280       63.81276
O         18.82655       52.95653       64.52406
C         19.60863       49.67002       63.56942
C         18.18056       49.24017       63.84372
C         17.08066       50.00515       63.41687
C         17.94368       48.02618       64.51620
C         15.77374       49.55654       63.65358
C         16.64074       47.58635       64.75817
C         15.55136       48.34456       64.32530
O         14.30046       47.89604       64.55644
H         19.18369       51.33468       66.27883
H         21.17252       51.05285       64.19224
H         20.28072       48.83533       63.85069
H         19.75094       49.79824       62.47652
H         17.22862       50.93572       62.88612
H         18.76951       47.41381       64.85616
H         14.93318       50.14670       63.31102
H         16.47914       46.64944       65.27721
H         13.51487       48.38081       64.26647
N         19.77813       52.58066       62.52526
C         19.39154       53.84366       61.90630
C         18.44950       53.53555       60.76232
O         18.79787       52.72801       59.91262
C         20.65390       54.58283       61.35038
C         21.73082       54.79001       62.44539
C         20.25184       55.93483       60.71599
C         23.05096       55.33924       61.88942
H         20.33414       51.93327       61.94866
H         18.89131       54.51431       62.64017
H         21.10298       53.94115       60.55878
H         21.97390       53.80884       62.90489
H         21.34931       55.46343       63.24337
H         21.11520       56.44012       60.24109
H         19.51103       55.78876       59.90711
H         19.81456       56.61238       61.48111
H         23.44357       54.66395       61.09796
H         22.93456       56.35878       61.47139
H         23.80292       55.39812       62.70319
N         17.26922       54.20428       60.63735
C         16.38114       54.01519       59.49683
C         16.49473       55.19712       58.55353
O         17.19975       56.14884       58.85333
C         14.93965       53.79241       59.98255
O         14.48775       54.91270       60.69434
H         17.03714       54.93596       61.32442
H         16.68767       53.12194       58.91124
H         14.92274       52.89447       60.63917
H         14.27044       53.61175       59.11338
H         13.58301       54.68265       61.03098
N         15.84405       55.17897       57.35798
C         15.92126       56.26829       56.39004
C         15.41160       57.55610       56.99757
O         16.07070       58.57788       56.86931
C         15.10833       55.92381       55.14004
H         15.27383       54.35131       57.12631
H         16.97713       56.40526       56.06289
H         15.19632       56.74287       54.39416
H         15.50570       54.99307       54.68082
H         14.03724       55.77345       55.39089
N         14.25670       57.56065       57.71809
C         13.72616       58.74283       58.38339
C         14.72985       59.33459       59.35970
O         15.03418       60.51381       59.24457
C         12.43433       58.38497       59.12994
H         13.74516       56.66933       57.81718
H         13.47040       59.50720       57.61578
H         12.62578       57.61368       59.90734
H         12.00905       59.28743       59.61807
H         11.68274       57.98505       58.41629
N         15.27861       58.57679       60.35368
C         16.18629       59.13038       61.36141
C         17.48392       59.66676       60.76789
O         18.17973       60.38949       61.46833
C         16.54751       58.07204       62.42533
C         15.32462       57.56903       63.21385
C         15.67258       56.47588       64.18809
O         16.80560       56.02544       64.25854
O         14.70967       55.96618       64.97795
H         15.01174       57.58333       60.40393
H         15.65973       59.97676       61.85769
H         17.26386       58.50949       63.15686
H         17.04851       57.22189       61.91385
H         14.55295       57.15949       62.53235
H         14.88364       58.42386       63.76964
N         17.89700       59.33036       59.51362
C         19.12257       59.81531       58.91281
H         19.79127       58.95545       58.69788
H         18.88147       60.32928       57.95876
H         19.66444       60.52954       59.56722
H         17.33851       58.67816       58.95481
Ca        16.48197       53.61421       66.40360
O         15.30162       52.95568       63.37200
H         14.34049       53.01392       63.14159
H         15.67818       53.82027       63.07532
O         13.49915       53.06322       65.69091
H         13.46216       53.76941       66.38188
H         12.76224       52.44543       65.92435

Ca 1.0



