%chk=holoCaM.loop4.water2.frame274.chk
%nprocshared=20
%mem=10GB
%nosave
#b3lyp/svp scf=(tight,noincore,xqc) Test 
#IOP(5/87=12) Density=Current Pop=(MK,readradii) iop(6/33=2) iop(6/42=6)

holoCaM.loop4.water2.frame274 

   -3  1 
C         40.08667       70.18225       80.36820
C         39.84544       69.78059       78.94999
O         40.57875       70.22162       78.07504
H         40.93932       70.89208       80.42980
H         39.17824       70.67898       80.76808
H         40.31752       69.28183       80.97275
N         38.79746       68.96710       78.63774
C         38.50362       68.60416       77.26190
C         37.08138       68.08668       77.14302
O         36.73679       67.13124       77.82606
C         39.52495       67.56738       76.74495
C         39.55994       67.53512       75.24861
O         40.34174       66.79079       74.67970
O         38.84537       68.42753       74.53353
H         38.16391       68.66477       79.39408
H         38.58667       69.53836       76.66406
H         39.31626       66.56101       77.17087
H         40.55317       67.85466       77.05055
N         36.19844       68.68384       76.28962
C         34.78372       68.32420       76.21857
C         34.46849       67.40075       75.05128
O         33.36579       66.87206       75.02165
C         33.87918       69.59558       76.19500
C         34.06331       70.41633       74.88423
C         34.14664       70.46134       77.44018
C         33.02743       71.52479       74.69975
H         36.54682       69.42913       75.67556
H         34.52636       67.73213       77.12505
H         32.82418       69.24488       76.23298
H         33.95450       69.74478       74.00617
H         35.07114       70.87231       74.84576
H         35.18728       70.85295       77.43275
H         33.45114       71.32222       77.49082
H         34.00122       69.86079       78.36215
H         33.09800       72.29024       75.49709
H         33.20478       72.03157       73.72676
H         32.00514       71.09109       74.68741
N         35.36871       67.16203       74.05618
C         35.13136       66.21864       72.96514
C         36.20500       65.13138       72.90194
O         36.06392       64.23750       72.07869
C         34.89935       66.95565       71.61908
C         35.93754       67.94448       71.17021
O         37.02122       68.20323       71.90906
O         35.77299       68.55387       70.12553
H         36.25935       67.67205       74.07267
H         34.18516       65.66294       73.14353
H         33.94850       67.52365       71.70813
H         34.76770       66.19864       70.81602
N         37.26722       65.09468       73.76305
C         38.23027       64.00497       73.80713
C         38.94578       63.80719       72.49384
O         38.89127       62.70804       71.96038
H         37.39532       65.83755       74.46200
H         37.70597       63.06578       74.09342
H         38.98503       64.22009       74.59474
N         39.62739       64.83292       71.90928
C         40.33036       64.70009       70.62819
C         41.82416       65.03096       70.72397
O         42.53194       64.69299       69.78562
C         39.59315       65.51660       69.52820
C         39.50240       66.98538       69.82920
O         40.20420       67.46570       70.85678
O         38.75520       67.71412       69.19795
H         39.59957       65.74367       72.38595
H         40.28516       63.63828       70.30323
H         38.55259       65.12607       69.48970
H         40.05733       65.37043       68.53068
N         42.38312       65.68540       71.79163
C         43.81968       65.91645       71.93011
C         44.24685       67.35999       71.70400
O         45.42857       67.63598       71.84839
H         41.78557       66.04136       72.54935
H         44.39203       65.30271       71.20294
H         44.12497       65.58369       72.94606
N         43.36816       68.31479       71.28899
C         43.72410       69.68800       70.94398
C         42.91953       70.65457       71.79524
O         41.70259       70.54660       71.82323
C         43.50771       69.93031       69.42819
C         42.07791       69.67401       68.90289
C         41.92202       69.97470       67.43166
N         40.71458       69.81807       66.84151
O         42.87104       70.36596       66.76724
H         42.39196       68.05072       71.16737
H         44.80536       69.87419       71.12493
H         44.20219       69.26182       68.87169
H         43.79260       70.98219       69.20638
H         41.35413       70.31535       69.44144
H         41.80938       68.60917       69.05648
H         39.90163       69.49498       67.38621
H         40.58870       70.02670       65.84004
N         43.53258       71.63669       72.51928
C         42.79068       72.51744       73.41663
C         42.41440       73.79999       72.68856
O         43.29697       74.60323       72.41799
C         43.62966       72.81912       74.69983
C         42.83748       73.66185       75.70832
C         44.12524       71.54469       75.40199
H         44.55417       71.75519       72.44109
H         41.85809       72.00739       73.72895
H         44.53472       73.39079       74.39606
H         43.46483       73.89716       76.59423
H         42.52701       74.62144       75.25448
H         41.93781       73.10862       76.05081
H         43.28051       70.95007       75.79176
H         44.73121       70.91610       74.71685
H         44.77265       71.81549       76.26337
N         41.11790       74.05802       72.32712
C         40.72642       75.32254       71.69825
C         40.66513       76.43030       72.74461
O         40.93765       76.15937       73.90279
C         39.40713       75.21233       70.87844
C         38.09834       75.32428       71.63060
N         37.70753       74.40963       72.53822
O         37.35568       76.26245       71.37998
H         40.41424       73.32349       72.47643
H         41.49427       75.56121       70.92858
H         39.42286       74.28817       70.26231
H         39.41218       76.06312       70.16098
H         38.28792       73.59414       72.75271
H         36.79869       74.51796       73.01280
N         40.28419       77.69671       72.42642
C         40.14563       78.75856       73.42370
C         39.10769       78.40153       74.48465
O         39.42880       78.45514       75.66327
C         39.73873       80.07955       72.73629
C         39.52726       81.20211       73.72929
C         40.58582       81.67460       74.52511
C         38.25372       81.77897       73.87180
C         40.37061       82.70615       75.44590
C         38.04107       82.80705       74.79318
C         39.09973       83.27517       75.58364
O         38.90725       84.26760       76.47592
H         40.06899       77.90960       71.44021
H         41.12929       78.91978       73.92013
H         38.80092       79.90391       72.16500
H         40.52185       80.37976       72.00705
H         41.57621       81.24681       74.43446
H         37.42105       81.42878       73.27460
H         41.19236       83.06337       76.05412
H         37.05245       83.23723       74.89193
H         38.04354       84.68690       76.60001
N         37.83152       78.06765       74.13167
C         36.75239       77.83901       75.09989
C         36.98255       76.64752       76.03636
O         36.17971       76.46643       76.94238
C         35.38771       77.70680       74.38495
C         35.03329       78.97702       73.58610
C         33.65444       78.89201       73.00195
O         33.37501       78.01344       72.20203
O         32.72186       79.80060       73.34706
H         37.61518       78.03640       73.12793
H         36.69047       78.74178       75.74802
H         34.59866       77.56384       75.15678
H         35.38958       76.81769       73.71625
H         35.75001       79.14058       72.75551
H         35.08023       79.85833       74.26236
N         38.07975       75.84740       75.93863
C         38.46520       74.86302       76.94305
C         39.52637       75.50832       77.81463
O         39.31875       75.61816       79.01498
C         38.97501       73.58350       76.25160
C         37.82703       72.81649       75.57202
C         38.30983       71.72241       74.65696
O         37.42066       71.01100       73.94160
O         39.49922       71.50812       74.50465
H         38.75560       76.01963       75.18724
H         37.61546       74.59496       77.61138
H         39.45910       72.90123       76.98473
H         39.73552       73.88194       75.49599
H         37.22697       73.51460       74.96466
H         37.15958       72.38622       76.34954
N         40.66124       76.02426       77.27019
C         41.63481       76.75695       78.04752
H         42.45386       77.11197       77.38534
H         41.15178       77.64677       78.50714
H         42.06214       76.10976       78.83986
H         40.82459       75.93379       76.26352
Ca        39.50554       68.81498       72.44561
O         41.52899       69.58651       74.55567
H         41.27369       69.88273       75.46539
H         42.33596       69.03050       74.68518
O         38.55151       71.28521       70.62981
H         38.01415       72.04363       70.28864
H         38.55574       70.62989       69.88738

Ca 1.0



