%chk=holoCaM.loop1.water2.frame102.chk
%nprocshared=20
%mem=10GB
%nosave
#b3lyp/svp scf=(tight,noincore,xqc) Test 
#IOP(5/87=12) Density=Current Pop=(MK,readradii) iop(6/33=2) iop(6/42=6)

holoCaM.loop1.water2.frame102 

   0  1 
C         55.50076       17.05626       21.77378
C         54.41378       18.08317       21.78345
O         54.02726       18.51824       22.85668
H         56.40547       17.47680       22.26021
H         55.16249       16.16271       22.33842
H         55.75801       16.75065       20.73853
N         53.87661       18.54588       20.62310
C         52.82393       19.54634       20.62643
C         51.55007       18.94106       21.19889
O         51.13383       17.90242       20.70241
C         52.56798       20.07684       19.20671
C         51.78982       21.35535       19.26096
O         51.49787       21.92928       18.22700
O         51.53059       21.93879       20.44924
H         54.24834       18.20308       19.72350
H         53.19301       20.40023       21.23659
H         52.05277       19.31183       18.58563
H         53.53593       20.33086       18.72126
N         50.87903       19.52069       22.23738
C         49.76954       18.85359       22.91511
C         48.39584       19.31445       22.44911
O         47.43327       18.65638       22.82074
C         49.89450       19.02618       24.44747
C         51.26176       18.62638       25.03285
C         51.61480       17.15304       24.80426
C         52.97053       16.80917       25.43830
N         53.33978       15.42395       25.15358
H         51.20795       20.42339       22.60349
H         49.80576       17.76873       22.67643
H         49.09554       18.44228       24.95466
H         49.73674       20.10100       24.69142
H         51.23864       18.82959       26.12601
H         52.05436       19.26314       24.58772
H         51.67542       16.95484       23.71373
H         50.82666       16.50648       25.24733
H         52.92527       16.96677       26.53826
H         53.75887       17.47895       25.03802
H         52.64000       14.77270       25.57680
H         53.38515       15.27047       24.11947
H         54.28192       15.22942       25.56274
N         48.20345       20.41628       21.66338
C         46.87578       20.82847       21.19339
C         46.79751       20.97581       19.67014
O         45.72735       21.29971       19.17420
C         46.38901       22.07138       21.97195
C         47.20564       23.32171       21.83035
O         48.17344       23.36693       21.09393
O         46.85537       24.41566       22.53302
H         49.01461       21.00308       21.42251
H         46.12613       20.04538       21.44166
H         46.37052       21.80146       23.05102
H         45.34581       22.30564       21.66787
N         47.85254       20.67469       18.85818
C         47.76721       20.63006       17.40517
C         47.58116       21.97695       16.74190
O         46.66562       22.13529       15.94787
H         48.74455       20.36750       19.27046
H         46.96540       19.92368       17.09844
H         48.72874       20.22541       17.01824
N         48.48424       22.96544       16.96857
C         48.56231       24.22178       16.21754
C         49.93123       24.34267       15.53185
O         50.21897       25.39742       14.98355
C         48.21320       25.44549       17.11643
C         49.07024       25.61109       18.33294
O         48.79624       26.44164       19.18373
O         50.06498       24.74851       18.52878
H         49.20174       22.77359       17.67809
H         47.80109       24.24470       15.40741
H         47.16908       25.30266       17.47032
H         48.24766       26.38166       16.51908
N         50.79336       23.27760       15.44933
C         52.05624       23.32030       14.72545
C         53.17693       24.04196       15.44681
O         54.23531       24.17540       14.84781
H         50.51356       22.35854       15.81750
H         51.88090       23.76749       13.72255
H         52.41815       22.28148       14.56443
N         53.04426       24.52543       16.71585
C         54.11010       25.23971       17.42124
C         54.39216       24.62212       18.79237
O         53.61501       23.79450       19.24582
C         53.71636       26.73226       17.53746
C         53.70364       27.42426       16.16462
O         52.46563       26.87754       18.16291
H         52.14496       24.40942       17.19891
H         55.06156       25.17634       16.84933
H         54.47193       27.26517       18.15225
H         51.75360       26.64556       17.50925
H         52.97215       26.94527       15.47863
H         53.42127       28.49122       16.28570
H         54.71202       27.37264       15.70368
N         55.52302       24.95528       19.49344
C         55.84925       24.41023       20.81580
C         56.06026       25.55714       21.80051
O         57.01533       26.30909       21.65929
C         57.10123       23.47297       20.75589
C         56.81166       22.26194       19.82729
C         57.49731       22.98065       22.16540
C         57.97600       21.27412       19.69686
H         56.19539       25.60815       19.06146
H         55.00679       23.78789       21.18348
H         57.96034       24.05089       20.34846
H         56.57719       22.63683       18.80895
H         55.92608       21.70268       20.20427
H         56.69785       22.34478       22.58920
H         58.43767       22.39527       22.14342
H         57.69760       23.82761       22.84914
H         58.88550       21.79059       19.32555
H         58.19984       20.77803       20.66393
H         57.69984       20.47151       18.98138
N         55.18937       25.73693       22.83242
C         55.33280       26.76645       23.86622
C         56.36866       26.36771       24.91338
O         56.96386       25.30601       24.81293
C         53.96881       26.99713       24.57688
C         52.94111       27.63813       23.63935
O         53.49649       25.79692       25.14120
H         54.36571       25.11984       22.86404
H         55.63530       27.73197       23.40336
H         54.07565       27.73081       25.40048
H         52.83405       25.38098       24.53068
H         52.74417       26.96646       22.78942
H         51.99264       27.81899       24.18721
H         53.32128       28.61044       23.25909
N         56.59409       27.18248       25.98584
C         57.41816       26.81758       27.13638
C         56.82488       25.61022       27.85676
O         57.56698       24.68295       28.14307
C         57.57014       28.00332       28.12318
C         58.31271       29.18189       27.47735
O         56.31297       28.42635       28.58517
H         56.11985       28.09599       26.00601
H         58.44782       26.56244       26.79552
H         58.18673       27.64201       28.98099
H         56.46778       28.90879       29.43909
H         58.45124       29.99369       28.22190
H         59.31551       28.85727       27.12591
H         57.74950       29.59444       26.61505
N         55.49425       25.54319       28.17370
C         54.89367       24.37830       28.83656
C         54.98356       23.08430       28.00708
O         54.64272       22.03892       28.54306
C         53.40779       24.64021       29.22543
C         52.50139       24.82072       27.99831
C         51.00870       24.91918       28.31513
C         50.21294       25.03927       27.00030
N         48.77348       25.07694       27.24750
H         54.90090       26.35337       27.94595
H         55.45617       24.21762       29.78296
H         53.33743       25.53845       29.87598
H         53.04126       23.76744       29.80994
H         52.61897       23.93203       27.36418
H         52.80634       25.72974       27.44840
H         50.81290       25.80269       28.95933
H         50.68930       23.99910       28.85199
H         50.44019       24.16925       26.34232
H         50.51921       25.96482       26.46243
H         48.27402       25.17087       26.33311
H         48.46727       24.18911       27.70782
H         48.53282       25.89458       27.85259
N         55.40525       23.07386       26.70606
C         55.49662       21.87186       25.87600
C         56.93846       21.54795       25.49304
O         57.14636       20.51274       24.87470
C         54.68759       22.07581       24.57771
C         53.19391       22.30867       24.81496
C         52.45151       22.63812       23.55215
O         53.03504       22.72076       22.48439
O         51.12837       22.88146       23.60445
H         55.65773       23.95988       26.26284
H         55.10561       20.98807       26.42597
H         54.79741       21.18728       23.91618
H         55.10132       22.96643       24.05654
H         53.06741       23.17171       25.47581
H         52.74778       21.41177       25.29089
N         57.98049       22.37073       25.80659
C         59.35962       22.09590       25.46210
H         59.96773       22.07066       26.39086
H         59.48259       21.12869       24.93324
H         59.74127       22.90838       24.80839
H         57.81184       23.24871       26.30062
Ca        50.75901       24.01015       20.47467
O         51.40590       26.82900       20.67930
H         51.38124       27.80219       20.85645
H         52.36962       26.60909       20.60898
O         49.92167       25.76726       23.19186
H         50.03586       26.74245       23.06744
H         49.07832       25.68310       23.70269

Ca 1.0



