%chk=holoCaM.loop2.water3.frame384.chk
%nprocshared=20
%mem=10GB
%nosave
#b3lyp/svp scf=(tight,noincore,xqc) Test 
#IOP(5/87=12) Density=Current Pop=(MK,readradii) iop(6/33=2) iop(6/42=6)

holoCaM.loop2.water3.frame384 

   -2  1 
C        106.62879       81.68069        1.79904
C        106.21765       82.62046        2.89427
O        105.02805       82.77714        3.12872
H        107.73485       81.62393        1.70796
H        106.24157       80.66373        2.01358
H        106.21762       82.03770        0.83200
N        107.16182       83.29447        3.60460
C        106.84732       84.23513        4.67259
C        105.98658       85.37146        4.12815
O        106.41298       86.04823        3.20300
C        108.17061       84.77056        5.25545
C        108.02858       85.68573        6.42848
O        106.94765       85.91978        6.94178
O        109.13593       86.24781        6.92860
H        108.15343       83.12742        3.37014
H        106.30720       83.68741        5.47506
H        108.72007       85.31341        4.45631
H        108.79928       83.91477        5.58848
N        104.73680       85.60109        4.62825
C        103.82887       86.60736        4.07903
C        104.28556       88.04597        4.29251
O        103.71776       88.92391        3.65753
C        102.42685       86.44137        4.67690
H        104.39372       84.98186        5.37295
H        103.75789       86.41920        2.98507
H        102.05711       85.40969        4.49642
H        102.44904       86.62589        5.77269
H        101.71516       87.15429        4.20893
N        105.26746       88.37354        5.17968
C        105.76512       89.73410        5.37358
C        107.24703       89.83840        5.02627
O        107.77928       90.93807        5.09244
C        105.41335       90.26924        6.78225
C        105.89847       89.43828        7.93338
O        105.49804       88.29694        8.07772
O        106.69965       89.97911        8.86716
H        105.68857       87.62759        5.74256
H        105.25923       90.43202        4.67067
H        104.30655       90.33023        6.86562
H        105.80855       91.30472        6.88317
N        107.95296       88.77139        4.54231
C        109.28292       88.90273        3.97997
C        110.37060       89.20081        4.97712
O        111.45755       89.53244        4.52464
H        107.50893       87.85329        4.44771
H        109.24981       89.70624        3.21200
H        109.56808       87.96248        3.45883
N        110.20183       89.05362        6.32533
C        111.27526       89.33221        7.27313
C        111.79312       88.04543        7.91252
O        111.92428       87.96769        9.12585
C        110.80038       90.38973        8.28874
C        110.37518       91.66126        7.58932
N        109.10414       92.11597        7.68596
O        111.18830       92.28406        6.92312
H        109.30074       88.72111        6.69651
H        112.15748       89.75461        6.74387
H        111.61963       90.63311        8.99854
H        109.95043       89.97308        8.86902
H        108.40350       91.60969        8.24049
H        108.81447       92.97745        7.20001
N        112.19255       87.01784        7.10630
C        112.93505       85.83763        7.53753
C        112.27610       84.86304        8.50311
O        112.93302       83.87688        8.80542
H        112.05936       87.12299        6.08885
H        113.88885       86.17795        7.99573
H        113.19662       85.25397        6.62717
N        111.04275       85.04593        9.05653
C        110.47701       84.14447       10.06299
C        109.11498       83.61791        9.61379
O        108.27088       84.41480        9.23166
C        110.37186       84.90756       11.40165
C        109.96525       83.97710       12.54822
O        111.62063       85.46635       11.72771
H        110.50880       85.88822        8.82445
H        111.15578       83.28279       10.24757
H        109.60890       85.71414       11.31303
H        111.62653       86.39813       11.38381
H        110.72607       83.17581       12.67567
H        109.90428       84.55362       13.49530
H        108.97958       83.50657       12.35515
N        108.81413       82.28526        9.69754
C        107.53405       81.70761        9.27748
C        106.69470       81.34187       10.49844
O        107.09550       80.50331       11.29294
C        107.78308       80.48019        8.34518
C        108.39620       80.96081        7.00456
C        106.48916       79.67395        8.09628
C        108.84270       79.82122        6.08562
H        109.51204       81.65035       10.11418
H        106.95145       82.45390        8.69821
H        108.49847       79.79915        8.85856
H        109.29398       81.58152        7.20946
H        107.65630       81.59285        6.46441
H        106.68174       78.77150        7.48491
H        106.07636       79.28930        9.05026
H        105.72448       80.29819        7.59382
H        107.99479       79.17819        5.77688
H        109.28518       80.24781        5.16124
H        109.61006       79.20066        6.59483
N        105.48813       81.95722       10.68423
C        104.56907       81.68421       11.79255
C        103.81532       80.38757       11.56420
O        104.00164       79.76254       10.52885
C        103.51092       82.81324       11.88186
C        104.16913       84.15406       11.87347
O        103.98057       84.93934       10.80000
O        104.96106       84.47243       12.74487
H        105.22148       82.68731       10.00905
H        105.14340       81.66827       12.74558
H        102.87280       82.70896       12.78461
H        102.85816       82.75784       10.98131
N        102.89096       79.94746       12.46260
C        102.02390       78.80941       12.19482
C        101.08329       79.09791       11.01594
O        101.11285       78.29999       10.09237
C        101.25835       78.35790       13.46321
C        100.27673       77.24540       13.16762
C        100.71486       76.00312       12.67466
C         98.90081       77.45318       13.37361
C         99.79084       74.99148       12.39231
C         97.98201       76.43980       13.08948
C         98.42609       75.20988       12.59903
H        102.78335       80.45507       13.35538
H        102.66400       77.93848       11.92214
H        100.71774       79.19612       13.92732
H        101.98905       78.01369       14.22656
H        101.76771       75.81665       12.50701
H         98.53643       78.40215       13.74757
H        100.13239       74.03775       12.01145
H         96.92490       76.60998       13.24793
H         97.71217       74.42687       12.37873
N        100.21473       80.16903       10.94252
C         99.24080       80.31549        9.85974
C         99.85521       80.47159        8.48254
O         99.14053       80.35474        7.49546
C         98.44937       81.57536       10.23363
C         98.55616       81.57277       11.74721
C        100.02370       81.20862       11.92901
H         98.59270       79.41172        9.89863
H         99.00698       82.47829        9.88824
H         97.42095       81.62027        9.81616
H         98.25815       82.52581       12.23334
H         97.93098       80.74310       12.14931
H        100.65099       82.08026       11.64196
H        100.24374       80.94585       12.96960
N        101.17026       80.78649        8.34460
C        101.84853       80.90874        7.06624
C        102.23666       79.52243        6.59849
O        101.86447       79.13790        5.49961
C        103.06652       81.84429        7.22001
C        102.59324       83.27140        7.56904
C        103.71710       84.23928        7.78823
O        105.00145       83.84608        7.71285
O        103.46163       85.40696        8.03416
H        101.73099       80.95519        9.19324
H        101.18346       81.38286        6.30765
H        103.63557       81.88135        6.26463
H        103.73661       81.46252        8.02017
H        101.98160       83.25768        8.49618
H        101.96214       83.65164        6.73589
N        102.94423       78.69713        7.42085
C        103.29800       77.33253        7.09147
H        104.39793       77.20889        7.16735
H        102.81201       76.64735        7.81931
H        102.97388       77.04484        6.07024
H        103.21779       79.03633        8.35032
Ca       105.57159       86.34647       10.09361
O        108.13952       87.67750        9.88664
H        108.58817       88.51410       10.16168
H        108.67384       87.35007        9.12432
O        105.34312       88.77010       11.55665
H        104.97171       88.12819       12.21323
H        104.55788       89.07324       11.03526
O        107.32346       86.30725       12.31115
H        107.43755       86.93651       13.06510
H        107.38111       85.40809       12.71869

Ca 1.0



