%chk=holoCaM.loop4.water3.frame246.chk
%nprocshared=20
%mem=10GB
%nosave
#b3lyp/svp scf=(tight,noincore,xqc) Test 
#IOP(5/87=12) Density=Current Pop=(MK,readradii) iop(6/33=2) iop(6/42=6)

holoCaM.loop4.water3.frame246 

   -3  1 
C         25.90931       77.05039       75.23400
C         25.15691       78.34175       75.09991
O         25.29417       79.00179       74.08234
H         26.57548       77.08383       76.11882
H         25.18459       76.21532       75.35056
H         26.51845       76.85236       74.32505
N         24.28745       78.73026       76.07525
C         23.39640       79.87889       75.94691
C         23.42281       80.73986       77.20969
O         23.22844       80.19819       78.28927
C         21.97914       79.32530       75.70264
C         20.96473       80.36954       75.33304
O         19.69010       80.00017       75.11367
O         21.28333       81.53680       75.19005
H         24.16886       78.11202       76.89312
H         23.66828       80.48671       75.05552
H         21.63553       78.77489       76.60461
H         22.01731       78.60919       74.85251
N         23.60585       82.09452       77.14259
C         23.61583       82.97738       78.31579
C         22.44747       83.97187       78.33262
O         22.28321       84.64287       79.34213
C         24.97439       83.74550       78.41627
C         25.15589       84.76273       77.25026
C         26.14102       82.74580       78.49199
C         26.43216       85.60044       77.33349
H         23.73142       82.51403       76.21822
H         23.49971       82.36161       79.23442
H         24.96671       84.32282       79.36816
H         24.30566       85.47761       77.26109
H         25.15963       84.24459       76.27409
H         26.22637       82.16471       77.54962
H         27.10201       83.26692       78.67598
H         25.98418       82.04176       79.33590
H         26.43856       86.33850       76.50290
H         26.47410       86.15187       78.29575
H         27.33577       84.96772       77.22124
N         21.64141       84.17019       77.24858
C         20.57955       85.17480       77.18415
C         19.24419       84.54702       76.77463
O         18.28291       84.72738       77.50936
C         21.03208       86.37494       76.30325
C         21.74839       85.98109       75.04801
O         21.12929       85.28934       74.09073
O         22.94357       86.20692       74.93490
H         21.83135       83.64554       76.38813
H         20.40380       85.63624       78.18251
H         21.77560       86.94457       76.90527
H         20.18568       87.06168       76.08905
N         19.09694       83.80020       75.63992
C         17.83343       83.21580       75.20049
C         17.38449       83.73464       73.83723
O         16.36729       83.26711       73.34663
H         19.91391       83.60771       75.05409
H         17.01699       83.41725       75.92649
H         17.96515       82.11466       75.14141
N         18.06922       84.71778       73.18154
C         17.66939       85.32617       71.91000
C         17.70116       84.39722       70.68692
O         17.34415       84.86187       69.61261
C         18.53458       86.58656       71.64326
C         20.00446       86.32020       71.43882
O         20.50259       85.07283       71.49595
O         20.76114       87.25434       71.23142
H         18.87469       85.12882       73.65470
H         16.62395       85.68574       72.03058
H         18.42959       87.27552       72.51054
H         18.14810       87.11211       70.74494
N         18.07455       83.08758       70.75546
C         18.00362       82.17598       69.61876
C         19.17718       82.23918       68.65310
O         19.19694       81.42472       67.74269
H         18.31914       82.68234       71.66567
H         17.03722       82.30686       69.08396
H         18.01097       81.13965       70.01948
N         20.20397       83.12557       68.79594
C         21.40843       83.11447       67.96337
C         22.63090       82.88360       68.83868
O         22.48806       82.76160       70.04670
C         21.53330       84.43892       67.18661
C         20.35956       84.62956       66.21558
C         20.53418       85.86850       65.37693
N         20.58085       87.09441       65.94768
O         20.62829       85.76351       64.16294
H         20.15780       83.82338       69.54154
H         21.37682       82.28215       67.22639
H         22.46770       84.42496       66.58467
H         21.59272       85.28911       67.90061
H         19.40254       84.69919       66.77503
H         20.30885       83.74433       65.54270
H         20.49478       87.20664       66.96792
H         20.69875       87.93634       65.36472
N         23.87576       82.78817       68.28059
C         25.07822       82.53028       69.06376
C         26.03764       83.70392       68.91876
O         26.41719       84.02460       67.80200
C         25.71316       81.17255       68.63916
C         26.93761       80.82774       69.50246
C         24.69225       80.02739       68.77695
H         23.97903       82.87357       67.25913
H         24.81716       82.43470       70.12437
H         26.03477       81.22919       67.57645
H         27.71977       81.60783       69.41922
H         26.63497       80.72108       70.56296
H         27.38457       79.86319       69.17937
H         25.15060       79.05885       68.48307
H         24.33921       79.94316       69.82670
H         23.81315       80.19631       68.12171
N         26.50099       84.36245       70.02768
C         27.48129       85.44903       69.96907
C         28.86775       84.89716       70.25733
O         28.98750       83.70484       70.45754
C         27.10805       86.64416       70.88956
C         27.27892       86.41251       72.37832
N         26.42994       85.63458       73.08548
O         28.18824       86.98203       72.96403
H         26.23635       83.99483       70.94836
H         27.51527       85.85410       68.93384
H         26.08202       87.01170       70.67438
H         27.79397       87.47544       70.61746
H         25.62153       85.18501       72.64328
H         26.56136       85.51448       74.10058
N         29.97389       85.69194       70.24691
C         31.33195       85.16626       70.39709
C         31.54813       84.43098       71.71499
O         32.00957       83.29878       71.67895
C         32.36090       86.30470       70.24651
C         33.78254       85.78877       70.27789
C         34.22946       84.86193       69.31804
C         34.67497       86.23069       71.26724
C         35.54132       84.38251       69.35436
C         35.98819       85.75259       71.29964
C         36.42526       84.82518       70.34277
O         37.68877       84.35559       70.36178
H         29.85200       86.70022       70.07278
H         31.50663       84.44873       69.56550
H         32.19473       87.05284       71.05310
H         32.20091       86.81524       69.27213
H         33.56533       84.50653       68.54075
H         34.35595       86.94536       72.01342
H         35.87067       83.66656       68.61166
H         36.66418       86.10379       72.06869
H         38.33307       84.63962       71.02565
N         31.23294       85.00702       72.90946
C         31.42669       84.35434       74.21015
C         30.84280       82.95418       74.21678
O         31.55181       82.02462       74.57758
C         30.80978       85.20329       75.35213
C         31.73831       86.33369       75.83847
C         32.15387       87.31011       74.77893
O         31.32607       88.00878       74.21776
O         33.45782       87.43735       74.46581
H         30.78880       85.93544       72.87855
H         32.51223       84.22957       74.42149
H         30.66569       84.55859       76.24795
H         29.80416       85.57998       75.05847
H         32.65433       85.86172       76.25792
H         31.23968       86.88740       76.66315
N         29.58064       82.71871       73.78334
C         29.00435       81.37601       73.71909
C         29.83825       80.46827       72.82827
O         30.29649       79.43453       73.29378
C         27.58035       81.45011       73.16583
C         26.64283       82.21038       74.10527
C         25.31532       82.44558       73.47102
O         24.44279       83.22939       74.09491
O         25.03866       82.00143       72.37533
H         29.03368       83.52894       73.45325
H         28.96102       80.93503       74.74058
H         27.17282       80.42870       73.00770
H         27.61791       81.97891       72.18888
H         27.06016       83.20733       74.34004
H         26.51168       81.66010       75.06128
N         30.07730       80.79873       71.53223
C         30.85923       79.98061       70.63622
H         31.88534       79.85160       71.03866
H         30.37213       78.99240       70.50498
H         30.92795       80.47761       69.64359
H         29.69686       81.67015       71.16404
Ca        22.49649       83.79560       73.20914
O         20.27860       81.08813       71.98227
H         20.22381       80.41102       71.26217
H         19.54595       80.84689       72.60188
O         22.88867       80.10865       72.30388
H         23.84479       79.87732       72.22135
H         22.43213       79.40282       71.78361
O         23.64446       85.51647       71.04969
H         23.30592       86.02384       71.83011
H         22.96933       85.66263       70.34186

Ca 1.0



