%chk=holoCaM-CaMKII.loop1.water2.frame40.chk
%nprocshared=20
%mem=10GB
%nosave
#b3lyp/svp scf=(tight,noincore,xqc) Test 
#IOP(5/87=12) Density=Current Pop=(MK,readradii) iop(6/33=2) iop(6/42=6)

holoCaM-CaMKII.loop1.water2.frame40 

   0  1 
C          5.53499       72.54873       22.50055
C          4.77940       72.47225       23.78911
O          5.08545       71.62128       24.60932
H          6.32672       71.77034       22.46335
H          4.83885       72.40759       21.64988
H          6.01803       73.54693       22.42252
N          3.79896       73.37748       24.05422
C          3.12326       73.44671       25.34230
C          2.22321       72.22770       25.55200
O          1.15469       72.16780       24.96038
C          2.37421       74.79854       25.43494
C          1.96263       75.16541       26.82027
O          1.59296       76.30248       27.05674
O          2.01057       74.25899       27.80606
H          3.60609       74.10063       23.34302
H          3.92529       73.47043       26.11616
H          1.51973       74.85589       24.72536
H          3.09746       75.58600       25.14319
N          2.64807       71.17119       26.31084
C          1.91442       69.90677       26.41483
C          0.77416       69.92919       27.42471
O          0.01829       68.96729       27.45657
C          2.87100       68.73973       26.77239
C          4.02309       68.51621       25.77170
C          3.51330       68.34143       24.33448
C          4.63095       67.96190       23.36202
N          4.10466       67.86862       21.99980
H          3.59951       71.21374       26.69151
H          1.45657       69.68844       25.42819
H          2.27883       67.79909       26.81228
H          3.30979       68.90573       27.78226
H          4.56910       67.60104       26.09066
H          4.74180       69.36080       25.80646
H          3.07072       69.29883       23.98696
H          2.73586       67.54708       24.31213
H          5.06104       66.98066       23.66258
H          5.43720       68.72813       23.39185
H          3.74669       68.80270       21.69218
H          4.86846       67.56932       21.35276
H          3.32894       67.16765       21.95818
N          0.59990       70.95844       28.29562
C         -0.48808       71.02270       29.27867
C         -1.39052       72.23745       29.04249
O         -2.36679       72.38281       29.76400
C          0.07279       70.92565       30.73010
C          1.08485       71.97625       31.09394
O          1.66626       71.94468       32.16608
O          1.37193       72.91902       30.19482
H          1.27999       71.72486       28.25654
H         -1.15637       70.14120       29.16665
H          0.57736       69.93934       30.82301
H         -0.76320       70.95218       31.46198
N         -1.17561       73.10766       28.00919
C         -2.09109       74.17711       27.64555
C         -2.23506       75.24004       28.70454
O         -3.35061       75.50834       29.12722
H         -0.36638       72.98188       27.38735
H         -3.08396       73.74259       27.39744
H         -1.70560       74.67599       26.72865
N         -1.14335       75.92070       29.14396
C         -1.20430       77.04684       30.07209
C         -0.61515       78.31435       29.43771
O         -0.41930       79.29183       30.14666
C         -0.54616       76.65204       31.41541
C          0.91901       76.36191       31.36580
O          1.54727       75.92978       32.47452
O          1.55189       76.52773       30.34264
H         -0.22145       75.63586       28.78471
H         -2.25692       77.28434       30.33904
H         -1.06178       75.74086       31.78981
H         -0.69932       77.46241       32.15940
N         -0.37830       78.39392       28.08955
C          0.10808       79.58933       27.41221
C          1.58722       79.88619       27.60514
O          2.04257       80.87528       27.05317
H         -0.64098       77.60454       27.48305
H         -0.50796       80.46228       27.72039
H         -0.03377       79.45294       26.31769
N          2.39986       79.08605       28.35251
C          3.82269       79.33697       28.57333
C          4.64499       78.12180       28.15678
O          4.32351       77.01565       28.56379
C          4.07866       79.68374       30.05890
C          3.38692       80.99575       30.46843
O          3.70451       78.63184       30.91069
H          1.99465       78.26793       28.81075
H          4.17305       80.21727       27.99179
H          5.17057       79.85022       30.19017
H          2.72243       78.67393       31.04225
H          3.73620       81.83130       29.82548
H          2.28319       80.91120       30.37275
H          3.63276       81.23591       31.52423
N          5.77207       78.27731       27.39722
C          6.64001       77.17016       26.99514
C          7.91022       77.22154       27.82611
O          8.65170       78.19057       27.75185
C          6.94417       77.24662       25.46863
C          5.63999       77.03280       24.66481
C          8.01584       76.21385       25.05233
C          5.78706       77.30061       23.16651
H          6.06667       79.23191       27.14444
H          6.14424       76.19534       27.19735
H          7.34697       78.26144       25.25198
H          4.85552       77.72636       25.03616
H          5.29018       75.99002       24.81717
H          8.27410       76.30651       23.97967
H          8.96395       76.38588       25.60038
H          7.66779       75.17955       25.25378
H          4.80555       77.14816       22.67053
H          6.10965       78.35027       22.99939
H          6.51151       76.61128       22.69028
N          8.20261       76.18453       28.66174
C          9.38417       76.13293       29.51072
C         10.60333       75.71817       28.70096
O         10.48204       75.39672       27.52699
C          9.16052       75.14782       30.69665
C          7.95374       75.55401       31.54568
O          8.96035       73.84913       30.21441
H          7.53722       75.40940       28.72019
H          9.55375       77.14016       29.95141
H         10.06252       75.16298       31.34843
H          9.02282       73.23211       30.99002
H          7.02670       75.50835       30.94016
H          7.83888       74.85160       32.39885
H          8.08260       76.58109       31.94361
N         11.82628       75.68904       29.29464
C         13.04208       75.23261       28.62660
C         12.90241       73.75764       28.25823
O         13.22209       73.38527       27.13932
C         14.26636       75.47646       29.54452
C         15.58504       75.15520       28.83703
O         14.30628       76.83387       29.91514
H         11.88838       75.99685       30.27625
H         13.20531       75.84212       27.70862
H         14.19269       74.82744       30.45052
H         13.97782       76.90182       30.84979
H         15.63120       74.08853       28.53763
H         15.69801       75.79244       27.93247
H         16.43505       75.36755       29.52008
N         12.37865       72.87766       29.15988
C         12.12734       71.45719       28.90384
C         11.19427       71.26685       27.71489
O         11.54812       70.54819       26.79060
C         11.52605       70.82623       30.18722
C         11.34994       69.29308       30.14951
C         10.97716       68.73794       31.54611
C          9.55576       69.07683       32.04103
N          8.53743       68.25328       31.38605
H         12.11778       73.25383       30.08484
H         13.09750       70.95178       28.69584
H         10.55933       71.31539       30.42361
H         12.23757       71.05267       31.01212
H         12.33559       68.85524       29.88111
H         10.61495       68.98039       29.37781
H         11.71226       69.14925       32.27172
H         11.09346       67.63274       31.56281
H          9.32840       70.15614       31.91550
H          9.51008       68.86019       33.13157
H          8.69731       67.24650       31.62606
H          7.59394       68.52517       31.74648
H          8.55718       68.37609       30.34986
N          9.98289       71.89252       27.67676
C          9.00867       71.72599       26.59696
C          9.52727       72.20581       25.24425
O          8.89376       71.89495       24.24480
C          7.68688       72.46571       26.93099
C          6.99655       71.88456       28.17992
C          5.72169       72.60417       28.52471
O          5.72465       73.92193       28.78200
O          4.67874       71.98432       28.63013
H          9.74574       72.49784       28.46646
H          8.79339       70.63811       26.50291
H          6.98683       72.37749       26.07607
H          7.90792       73.54560       27.08279
H          7.66334       71.95756       29.05844
H          6.77490       70.80943       28.00406
N         10.65433       72.96338       25.12716
C         11.21521       73.38716       23.86036
H         12.26053       73.01764       23.78658
H         10.64831       72.99483       22.99069
H         11.22468       74.49569       23.81150
H         11.14473       73.27290       25.97049
Ca         2.95172       74.42550       29.84493
O          4.72255       76.06327       31.92808
H          4.01349       76.57867       32.38269
H          5.37097       75.87017       32.64949
O          4.94420       72.98979       32.01140
H          4.37508       72.18525       32.10206
H          4.95141       73.38957       32.91713

Ca 1.0



