%chk=holoCaM.loop2.water3.frame468.chk
%nprocshared=20
%mem=10GB
%nosave
#b3lyp/svp scf=(tight,noincore,xqc) Test 
#IOP(5/87=12) Density=Current Pop=(MK,readradii) iop(6/33=2) iop(6/42=6)

holoCaM.loop2.water3.frame468 

   -2  1 
C          4.95420       65.09853       62.78903
C          5.45307       66.15152       61.84084
O          6.17282       67.04886       62.25432
H          3.84280       65.09880       62.79080
H          5.30974       64.09987       62.45758
H          5.31229       65.28382       63.82318
N          5.08696       66.09216       60.53172
C          5.48997       67.06198       59.51149
C          4.97434       68.44143       59.92210
O          3.76729       68.63256       59.97086
C          4.89435       66.56758       58.16609
C          5.12286       67.24554       56.83836
O          4.49151       66.80112       55.89560
O          5.97351       68.26752       56.60650
H          4.48255       65.30098       60.25624
H          6.59612       67.04848       59.45377
H          3.79149       66.54861       58.30939
H          5.23185       65.51779       58.01726
N          5.83621       69.41520       60.34219
C          5.39724       70.68892       60.90327
C          4.69861       71.58243       59.89324
O          3.99365       72.48537       60.32154
C          6.58131       71.44114       61.53106
H          6.83599       69.20643       60.36244
H          4.68167       70.45751       61.72279
H          7.05938       70.81403       62.31429
H          7.34483       71.67993       60.76214
H          6.24391       72.38653       62.00641
N          4.88327       71.43597       58.54938
C          4.20100       72.26109       57.55127
C          3.47213       71.41966       56.49930
O          2.92363       72.00053       55.57269
C          5.17311       73.28436       56.91926
C          6.33867       72.72079       56.16688
O          7.10913       73.48111       55.60382
O          6.56339       71.39972       56.12115
H          5.55681       70.72947       58.22257
H          3.42353       72.88976       58.03757
H          5.57536       73.93816       57.72387
H          4.59411       73.92808       56.22168
N          3.36733       70.06028       56.59809
C          2.60932       69.24453       55.65817
C          3.25325       69.05753       54.28856
O          2.63217       68.39910       53.46598
H          3.75172       69.58031       57.42123
H          1.59352       69.68221       55.54225
H          2.46648       68.23538       56.09669
N          4.45883       69.60392       53.94589
C          4.98645       69.54019       52.57878
C          5.46977       68.16129       52.14117
O          5.56079       67.93913       50.94216
C          6.07952       70.60749       52.35608
C          7.40789       70.31145       53.01627
N          8.56079       70.47576       52.32798
O          7.45397       69.95581       54.18154
H          4.95030       70.18019       54.63807
H          4.14187       69.83846       51.91721
H          5.69056       71.57034       52.75055
H          6.24766       70.74292       51.26590
H          8.55600       70.80438       51.35270
H          9.46881       70.31802       52.78323
N          5.85168       67.21228       53.04343
C          6.32342       65.88493       52.66983
C          7.74148       65.59560       53.12726
O          8.19417       64.48728       52.87364
H          5.81673       67.43816       54.04190
H          6.28654       65.73585       51.56942
H          5.64818       65.13235       53.13162
N          8.50740       66.51176       53.79504
C          9.87153       66.23751       54.24853
C          9.96790       66.36013       55.75954
O          9.01738       66.79197       56.39605
C         10.86576       67.23580       53.60689
C         10.84458       67.18799       52.07775
O         10.55539       68.53511       54.03668
H          8.12146       67.44298       53.99879
H         10.17078       65.20221       53.97153
H         11.89363       66.96727       53.94697
H         11.38733       69.07260       53.97139
H          9.84113       67.46049       51.68743
H         11.58261       67.91550       51.67583
H         11.11751       66.17372       51.71985
N         11.11013       65.98558       56.39913
C         11.33952       66.15651       57.82944
C         12.71916       66.75811       58.07320
O         13.70693       66.23623       57.57414
C         11.13863       64.83068       58.62299
C         11.91677       63.63226       58.02283
C          9.63060       64.52217       58.73761
C         11.90273       62.39536       58.92417
H         11.85643       65.53969       55.84236
H         10.60249       66.86828       58.25923
H         11.50096       65.01973       59.65950
H         12.98082       63.90394       57.88173
H         11.49104       63.36666       57.03013
H          9.09707       65.38469       59.19383
H          9.18619       64.31765       57.74154
H          9.43957       63.65829       59.40345
H         12.36927       62.63644       59.90280
H         10.87671       62.01273       59.09186
H         12.48815       61.58332       58.44473
N         12.85519       67.82281       58.91594
C         14.13838       68.38697       59.33164
C         14.42429       67.86318       60.74474
O         13.62692       67.07089       61.21733
C         14.04506       69.92456       59.20251
C         15.34632       70.68568       59.20407
O         16.53699       70.05878       59.17046
O         15.31822       71.90393       59.13705
H         12.01224       68.18447       59.38483
H         14.94507       68.01690       58.66125
H         13.36784       70.30683       59.99655
H         13.58663       70.16301       58.21970
N         15.55033       68.15231       61.45704
C         15.89031       67.41514       62.67404
C         14.87441       67.56869       63.80925
O         14.43838       66.53547       64.29566
C         17.33479       67.70332       63.14301
C         17.82382       66.64150       64.10561
C         17.93975       65.30443       63.67385
C         18.18289       66.96440       65.42447
C         18.39611       64.31340       64.54371
C         18.64193       65.96616       66.29310
C         18.74726       64.64303       65.85310
H         16.24131       68.80786       61.08162
H         15.88838       66.34523       62.37187
H         17.41076       68.71326       63.58638
H         18.01961       67.67514       62.26812
H         17.68289       65.02468       62.65984
H         18.10755       67.98360       65.78108
H         18.47975       63.29037       64.19882
H         18.91811       66.21700       67.30855
H         19.10347       63.87233       66.52422
N         14.42835       68.77689       64.29226
C         13.42657       68.91601       65.35234
C         12.22859       68.01065       65.15192
O         11.81819       67.31711       66.07149
C         12.99005       70.38583       65.23899
C         14.27507       71.05179       64.81631
C         14.80081       70.07596       63.76534
H         13.90786       68.72497       66.33708
H         12.28247       70.51977       64.38809
H         12.50992       70.79564       66.15357
H         14.17688       72.10126       64.46587
H         14.96069       71.02913       65.69419
H         14.29908       70.21581       62.78200
H         15.88905       70.23459       63.66681
N         11.65776       67.95041       63.92378
C         10.52357       67.11150       63.56599
C         10.83374       65.64597       63.80881
O         10.10114       65.00089       64.54517
C         10.19330       67.35103       62.08453
C          9.72791       68.79873       61.86011
C          9.56702       69.06351       60.40977
O         10.06178       70.04815       59.88703
O          8.81704       68.21804       59.70141
H         12.09018       68.52810       63.18692
H          9.63425       67.39556       64.17388
H          9.38619       66.65925       61.75286
H         11.09240       67.14381       61.46779
H         10.41632       69.56222       62.27564
H          8.74229       68.92032       62.35882
N         11.91719       65.06217       63.22877
C         12.29661       63.67943       63.41549
H         13.30551       63.64091       63.87826
H         11.58541       63.12925       64.06443
H         12.33960       63.17793       62.42639
H         12.52404       65.62711       62.63187
Ca         7.69363       68.80266       57.89363
O          9.98524       71.62270       55.32654
H          9.18451       72.10929       55.01279
H         10.68134       72.32105       55.41298
O         11.33374       69.40775       56.65719
H         11.88860       70.22298       56.57644
H         10.94405       69.46098       57.56336
O          8.64926       72.08491       58.22427
H          8.97390       72.29495       59.13440
H          8.95246       72.85184       57.67754

Ca 1.0



