%chk=holoCaM-CaMKII.loop1.water2.frame204.chk
%nprocshared=20
%mem=10GB
%nosave
#b3lyp/svp scf=(tight,noincore,xqc) Test 
#IOP(5/87=12) Density=Current Pop=(MK,readradii) iop(6/33=2) iop(6/42=6)

holoCaM-CaMKII.loop1.water2.frame204 

   0  1 
C          7.01016       80.08654       32.98792
C          6.27042       80.87757       34.02294
O          6.69572       81.97713       34.34563
H          8.04492       79.89760       33.34146
H          6.51902       79.10756       32.80142
H          7.03887       80.65538       32.03618
N          5.15059       80.36620       34.60153
C          4.38477       81.06621       35.62360
C          5.28811       81.36850       36.81262
O          5.90618       80.45661       37.34423
C          3.16729       80.20664       36.00172
C          2.20847       80.85799       36.94251
O          2.39578       81.97732       37.38658
O          1.09732       80.19047       37.27180
H          4.83314       79.43074       34.30145
H          3.99693       82.01468       35.18644
H          3.50225       79.24254       36.43917
H          2.59415       79.98995       35.07313
N          5.43966       82.65587       37.23728
C          6.43623       83.10687       38.20058
C          5.82498       83.54078       39.51986
O          6.55626       83.64700       40.49477
C          7.22001       84.28121       37.55610
C          8.48916       84.73624       38.30836
C          9.49637       83.59525       38.53707
C          9.98937       82.94892       37.22754
N         10.69460       81.70088       37.50065
H          4.85021       83.36192       36.80631
H          7.09429       82.24223       38.41445
H          6.53675       85.15329       37.44580
H          7.49717       84.00008       36.52181
H          8.20315       85.16083       39.29376
H          8.97207       85.55228       37.72723
H          9.01666       82.83171       39.17882
H         10.37179       83.97684       39.10578
H         10.64796       83.66497       36.68645
H          9.14740       82.68947       36.55826
H         11.02323       81.29187       36.59632
H         11.50850       81.86449       38.13375
H         10.02864       81.02374       37.94264
N          4.49202       83.78543       39.63428
C          3.82644       84.07713       40.89455
C          2.83863       82.96297       41.23975
O          2.17159       83.06899       42.25915
C          3.20540       85.49535       40.86050
C          2.15708       85.75481       39.81214
O          1.79940       84.88632       39.03661
O          1.60854       86.98129       39.72675
H          3.90278       83.73084       38.79546
H          4.55998       84.09863       41.73075
H          4.03060       86.22251       40.69191
H          2.76019       85.71859       41.85396
N          2.75211       81.82165       40.48401
C          1.93481       80.67557       40.84958
C          0.43845       80.89046       40.74288
O         -0.29615       80.00140       41.14896
H          3.35595       81.69887       39.66101
H          2.20890       80.36689       41.87864
H          2.17713       79.82961       40.16673
N         -0.09325       82.00553       40.16986
C         -1.52886       82.23332       39.97288
C         -2.19685       81.29358       38.94068
O         -3.35767       81.52385       38.63066
C         -1.77309       83.73100       39.63220
C         -1.07838       84.23853       38.39443
O         -0.32319       83.41471       37.64750
O         -1.15979       85.42072       38.09872
H          0.55576       82.74270       39.86885
H         -2.05037       82.08383       40.94446
H         -1.39293       84.33193       40.48890
H         -2.86425       83.92474       39.55003
N         -1.57741       80.18823       38.41949
C         -2.21394       79.24632       37.50350
C         -2.27902       79.70926       36.05967
O         -2.85522       78.99236       35.25422
H         -0.65113       79.92342       38.75146
H         -3.22915       78.99922       37.88227
H         -1.62561       78.30335       37.49112
N         -1.72312       80.88222       35.65342
C         -1.81812       81.40509       34.28993
C         -0.45444       81.85371       33.76125
O          0.50357       81.89426       34.51557
C         -2.87233       82.55808       34.27416
C         -4.27542       81.98840       34.06727
O         -2.90001       83.28055       35.48365
H         -1.25034       81.46428       36.35473
H         -2.14165       80.61045       33.58174
H         -2.69560       83.25183       33.42404
H         -1.97212       83.43981       35.77850
H         -5.02063       82.81251       34.08785
H         -4.33722       81.49192       33.07529
H         -4.53231       81.25698       34.86165
N         -0.28774       82.13283       32.43020
C          0.97999       82.56825       31.83333
C          0.72074       83.83325       31.02946
O         -0.07145       83.79860       30.09720
C          1.60387       81.43869       30.95452
C          1.90098       80.20395       31.84882
C          2.90714       81.92857       30.27810
C          2.39747       78.96964       31.09510
H         -1.09255       81.99542       31.79852
H          1.72439       82.79195       32.62746
H          0.87627       81.15766       30.16052
H          0.97415       79.89374       32.37411
H          2.65705       80.48362       32.61527
H          3.66821       82.19363       31.04266
H          3.33599       81.15649       29.60890
H          2.72226       82.81694       29.64102
H          3.35162       79.15892       30.56546
H          2.58115       78.15372       31.82659
H          1.62892       78.62786       30.37043
N          1.35970       84.99378       31.34420
C          1.12519       86.25150       30.65126
C          2.02532       86.36342       29.43619
O          2.86243       85.50528       29.19738
C          1.35669       87.46553       31.60646
C          0.46507       87.38744       32.84424
O          2.70103       87.51746       31.99052
H          2.03074       84.99256       32.11462
H          0.06624       86.29346       30.31488
H          1.11053       88.40830       31.07450
H          2.79750       88.11466       32.77775
H          0.60683       88.29605       33.46967
H         -0.60137       87.32138       32.55180
H          0.75747       86.50744       33.44917
N          1.91438       87.45639       28.64196
C          2.81802       87.77510       27.54228
C          4.24198       87.89622       28.08961
O          5.16767       87.34132       27.51541
C          2.34796       89.09243       26.86111
C          0.94447       88.92737       26.24002
O          2.32748       90.13873       27.79963
H          1.17703       88.13318       28.88203
H          2.79125       86.97528       26.76804
H          3.06371       89.33976       26.04360
H          2.26554       90.98725       27.28829
H          0.18028       88.64280       26.99344
H          0.61150       89.88195       25.78192
H          0.95927       88.14472       25.45304
N          4.45186       88.56599       29.25662
C          5.73746       88.73871       29.93144
C          6.38284       87.40773       30.32875
O          7.54546       87.18518       30.02340
C          5.48957       89.60912       31.19446
C          6.77590       90.02958       31.90968
C          6.54397       90.94938       33.12470
C          5.80532       92.25421       32.76785
N          5.97105       93.25902       33.81820
H          3.62254       88.98246       29.70694
H          6.42376       89.30049       29.25967
H          4.82940       89.07554       31.90949
H          4.96560       90.52980       30.86023
H          7.41937       90.57129       31.18347
H          7.32304       89.12765       32.25793
H          7.55460       91.20226       33.50887
H          5.99109       90.42222       33.93493
H          4.72197       92.04341       32.61399
H          6.21726       92.67315       31.82473
H          5.61558       92.90585       34.73526
H          6.98507       93.50478       33.90305
H          5.44758       94.12429       33.55148
N          5.67743       86.50501       31.06055
C          6.19971       85.26953       31.64535
C          6.77309       84.35192       30.58332
O          7.91000       83.92680       30.73966
C          5.10306       84.59288       32.52227
C          4.77085       85.52694       33.71802
C          3.74143       85.06333       34.71010
O          2.51759       84.64772       34.34711
O          3.97910       85.19226       35.89674
H          4.69695       86.73016       31.22299
H          7.03352       85.51465       32.34185
H          5.47235       83.62380       32.91139
H          4.20415       84.38890       31.90461
H          4.41472       86.49613       33.35040
H          5.70959       85.72563       34.28022
N          6.08113       84.05554       29.44969
C          6.63100       83.25045       28.37479
H          7.64343       82.85676       28.60974
H          5.96055       82.39130       28.17169
H          6.71332       83.87182       27.45740
H          5.14325       84.45436       29.31463
Ca         1.12861       84.04532       36.02982
O         -0.96489       85.74239       35.05205
H         -1.69582       85.25309       34.60751
H         -1.21131       86.68964       34.92150
O          1.70137       87.01166       36.23086
H          2.23981       87.61868       35.66382
H          1.67408       87.45436       37.11451

Ca 1.0



