%chk=holoCaM-CaMKII.loop3.water2.frame200.chk
%nprocshared=20
%mem=10GB
%nosave
#b3lyp/svp scf=(tight,noincore,xqc) Test 
#IOP(5/87=12) Density=Current Pop=(MK,readradii) iop(6/33=2) iop(6/42=6)

holoCaM-CaMKII.loop3.water2.frame200 

   0  1 
C         20.51329       55.10076       22.50111
C         21.83026       54.40491       22.33764
O         22.50490       54.18012       23.33296
H         19.86136       54.49585       23.16664
H         20.67314       56.10037       22.95395
H         19.99806       55.22614       21.52563
N         22.25209       54.00214       21.10642
C         23.48331       53.25237       20.91645
C         24.69454       54.09144       21.28650
O         24.93654       55.12062       20.67174
C         23.56391       52.71692       19.47660
C         24.68291       51.74037       19.26705
O         24.81038       51.21408       18.17828
O         25.53260       51.41584       20.25973
H         21.64514       54.18159       20.29129
H         23.42691       52.37301       21.58139
H         23.66008       53.55946       18.75805
H         22.62181       52.16893       19.25450
N         25.48323       53.69936       22.32345
C         26.62928       54.45210       22.81483
C         27.73511       54.52775       21.77591
O         28.20925       55.61977       21.49677
C         27.13994       53.79821       24.11932
C         28.19779       54.64641       24.84158
C         28.55408       54.02446       26.19930
C         29.54451       54.90422       26.97388
N         29.84697       54.32297       28.28199
H         25.22536       52.83282       22.81956
H         26.28953       55.47759       23.08575
H         27.53406       52.77798       23.91654
H         26.26953       53.70481       24.80707
H         27.77977       55.66220       25.01802
H         29.11112       54.73910       24.21472
H         28.99241       53.01447       26.04348
H         27.62685       53.92006       26.80565
H         29.10385       55.91588       27.12117
H         30.48535       55.01245       26.39031
H         28.97187       54.23864       28.84928
H         30.28331       53.37978       28.16541
H         30.51628       54.94675       28.78824
N         28.19346       53.39667       21.16694
C         29.32939       53.36816       20.24663
C         28.92533       53.11049       18.79438
O         29.81197       53.02904       17.95499
C         30.37953       52.36775       20.77880
C         29.85306       50.96957       20.94425
O         29.80911       50.40760       22.16753
O         29.47275       50.33461       19.97771
H         27.72069       52.50513       21.37856
H         29.83354       54.35917       20.22176
H         30.71794       52.72833       21.77467
H         31.26593       52.34740       20.10875
N         27.61905       53.08237       18.39940
C         27.20830       53.04665       17.00063
C         27.49057       51.75987       16.24685
O         27.21917       51.74581       15.05395
H         26.88138       53.22251       19.09951
H         27.70863       53.88697       16.47151
H         26.11337       53.22711       16.93959
N         28.01978       50.64517       16.83173
C         28.34407       49.44218       16.05861
C         27.12161       48.74450       15.45144
O         27.31294       47.82161       14.67191
C         29.18467       48.45124       16.89840
C         28.41057       47.74755       17.99217
N         28.37152       46.39497       18.04020
O         27.82829       48.39499       18.84787
H         28.25178       50.67561       17.83092
H         29.00175       49.77602       15.22454
H         30.03778       49.00376       17.34934
H         29.61724       47.68798       16.21528
H         28.86429       45.82373       17.33822
H         27.85590       45.91261       18.79039
N         25.84636       49.11379       15.77202
C         24.64563       48.50773       15.21642
C         23.80133       47.80944       16.26734
O         22.73718       47.32157       15.91504
H         25.69882       49.86439       16.45087
H         24.89236       47.75840       14.43361
H         24.04396       49.31094       14.74070
N         24.23415       47.65661       17.55386
C         23.53281       46.87052       18.56506
C         23.22784       47.74343       19.80292
O         24.14692       48.79470       19.96706
C         24.36215       45.60603       18.88993
C         24.49098       44.74611       17.64876
C         25.36612       45.10685       16.60751
C         23.69523       43.59749       17.50067
C         25.42530       44.35168       15.43501
C         23.75220       42.84501       16.32344
C         24.61314       43.22479       15.28347
O         24.66318       42.52086       14.13495
H         25.15159       48.03752       17.82602
H         22.55021       46.50422       18.19286
H         23.80786       45.03185       19.66341
H         25.36275       45.84847       19.30463
H         25.99715       45.98035       16.69373
H         23.00768       43.29982       18.28252
H         26.09462       44.65247       14.63864
H         23.11695       41.97515       16.21596
H         24.10080       41.74871       13.98020
N         22.86990       46.96759       21.01439
C         22.96646       47.61582       22.34135
C         22.98793       46.57571       23.45148
O         22.61292       45.43056       23.24439
C         21.87322       48.69140       22.66051
C         20.43588       48.11318       22.62121
C         22.02494       49.92830       21.77400
C         19.37423       49.09360       23.12674
H         21.94692       46.49678       20.87620
H         23.94990       48.08778       22.41381
H         22.06856       49.04403       23.69861
H         20.38543       47.22026       23.28017
H         20.17392       47.80103       21.58829
H         21.38437       50.76031       22.13079
H         23.07601       50.26799       21.84114
H         21.76423       49.71528       20.71915
H         19.60324       49.40609       24.16831
H         19.30745       49.99066       22.47895
H         18.38073       48.59804       23.11707
N         23.44757       46.94883       24.67863
C         23.46192       46.10898       25.86857
C         22.72424       46.83338       26.98902
O         22.20689       47.91613       26.76280
C         24.92362       45.84075       26.27190
O         25.58382       45.11587       25.26888
H         23.82357       47.90220       24.78207
H         22.96811       45.13045       25.68210
H         24.96899       45.23314       27.19876
H         25.46262       46.79166       26.49190
H         25.91980       45.77510       24.60945
N         22.64705       46.29967       28.23966
C         22.03615       47.00623       29.36368
C         22.78990       48.29177       29.67422
O         22.16505       49.34034       29.76133
C         22.02283       46.11353       30.60755
H         23.05268       45.36636       28.40314
H         20.97402       47.24027       29.12457
H         21.53071       46.64720       31.44936
H         21.44466       45.18852       30.39786
H         23.05322       45.83271       30.91111
N         24.14596       48.27813       29.84286
C         24.94943       49.45473       30.18997
C         24.92738       50.58086       29.15420
O         25.55371       51.60107       29.40752
C         26.40839       49.02735       30.41070
H         24.62663       47.36925       29.75055
H         24.56429       49.86330       31.14998
H         27.02732       49.88926       30.74067
H         26.46231       48.24588       31.19787
H         26.83735       48.61912       29.46934
N         24.23136       50.49041       27.98712
C         24.18204       51.54260       26.98199
C         22.78126       52.12669       26.97578
O         22.63904       53.31815       27.21545
C         24.58095       50.95179       25.61516
C         26.01447       50.37933       25.64097
C         26.30095       49.60255       24.38914
O         26.25176       50.19583       23.18738
O         26.51872       48.40376       24.45249
H         23.69984       49.64093       27.77907
H         24.88975       52.36813       27.22214
H         24.49961       51.72602       24.82262
H         23.86770       50.13775       25.36810
H         26.11776       49.67825       26.49687
H         26.75287       51.19838       25.77028
N         21.68976       51.33936       26.76635
C         20.33896       51.84905       26.85727
H         19.61222       51.02747       26.67889
H         20.15916       52.25574       27.87652
H         20.17590       52.64649       26.10337
H         21.81171       50.33904       26.56710
Ca        25.90835       48.85411       21.41071
O         26.43474       45.93552       21.98794
H         26.97151       45.63510       21.21257
H         25.53638       45.54856       21.83597
O         29.11691       47.45106       21.54261
H         29.33824       47.26965       22.49043
H         29.98436       47.67804       21.12273

Ca 1.0



