%chk=holoCaM-CaMKII.loop2.water1.frame337.chk
%nprocshared=20
%mem=10GB
%nosave
#b3lyp/svp scf=(tight,noincore,xqc) Test 
#IOP(5/87=12) Density=Current Pop=(MK,readradii) iop(6/33=2) iop(6/42=6)

holoCaM-CaMKII.loop2.water1.frame337 

   -2  1 
C         37.09606       64.91713       67.74983
C         37.73696       66.26916       67.90864
O         38.37459       66.73934       66.98162
H         36.37081       64.94642       66.90904
H         37.86865       64.14943       67.54236
H         36.54266       64.61878       68.66692
N         37.58483       66.96175       69.06682
C         38.08658       68.31419       69.29545
C         39.60811       68.40124       69.24120
O         40.27561       67.56915       69.83984
C         37.58954       68.78767       70.67421
C         37.94994       70.21101       70.94967
O         37.54857       71.10004       70.21431
O         38.70431       70.50917       72.02409
H         37.03432       66.51494       69.81741
H         37.64453       68.99319       68.53413
H         38.01318       68.13603       71.46903
H         36.48213       68.70920       70.71317
N         40.21470       69.46266       68.62517
C         41.65320       69.71060       68.69463
C         41.94666       71.21363       68.70211
O         42.73520       71.68183       67.89351
C         42.35716       68.98237       67.54057
H         39.61357       70.19871       68.23040
H         42.04383       69.32430       69.66110
H         41.98983       69.36774       66.56354
H         43.45613       69.13676       67.59497
H         42.15320       67.89243       67.58825
N         41.31639       72.02286       69.60869
C         41.51198       73.48273       69.73299
C         40.56528       74.19112       70.73522
O         40.83833       75.34423       71.04092
C         41.41928       74.21701       68.37528
C         40.25826       73.74903       67.56661
O         39.01709       73.77564       68.06330
O         40.44212       73.30278       66.44475
H         40.67279       71.53840       70.23929
H         42.54223       73.64662       70.11845
H         42.33842       74.04594       67.77861
H         41.35885       75.31603       68.52980
N         39.46479       73.60614       71.29443
C         38.63164       74.23254       72.31260
C         37.63643       75.26712       71.81161
O         36.92126       75.80294       72.64678
H         39.21874       72.65153       71.05773
H         39.28298       74.65828       73.10675
H         38.01624       73.43851       72.78994
N         37.49827       75.59789       70.49434
C         36.54385       76.60955       70.02732
C         35.06141       76.20485       70.16396
O         34.21429       77.03303       69.85953
C         36.87325       77.03703       68.57685
C         36.62066       75.98695       67.53100
N         36.89803       76.24714       66.23367
O         36.15619       74.90448       67.84401
H         38.13216       75.16784       69.81249
H         36.71010       77.52122       70.64322
H         37.94450       77.33385       68.53232
H         36.26221       77.92614       68.31205
H         37.29451       77.15499       65.95150
H         36.71599       75.54072       65.50842
N         34.66671       74.98204       70.63352
C         33.27469       74.64167       70.91768
C         32.43833       74.15898       69.74100
O         31.29467       73.79972       69.98664
H         35.37716       74.30131       70.93275
H         32.77745       75.49052       71.43654
H         33.28034       73.79233       71.63473
N         32.91239       74.07680       68.46515
C         32.14571       73.50884       67.34939
C         32.88408       72.31856       66.74971
O         33.98763       72.02057       67.18678
C         31.89170       74.58965       66.26656
C         31.00012       75.71320       66.79553
O         33.10362       75.13800       65.81308
H         33.86320       74.40788       68.26990
H         31.15886       73.12903       67.69486
H         31.33256       74.15189       65.40794
H         33.47960       74.50296       65.14882
H         30.02472       75.29882       67.13135
H         31.48357       76.23888       67.64480
H         30.80381       76.44793       65.98548
N         32.34768       71.61878       65.70453
C         33.05559       70.55050       65.00658
C         33.51169       71.12081       63.68083
O         32.68303       71.49877       62.86276
C         32.15979       69.29457       64.79022
C         31.65167       68.72104       66.13417
C         32.93107       68.21501       63.99597
C         30.59183       67.62816       65.94865
H         31.43505       71.91270       65.32431
H         33.95104       70.23931       65.59030
H         31.27674       69.61152       64.19160
H         31.17024       69.53155       66.72048
H         32.50444       68.32290       66.72728
H         32.29425       67.34136       63.76173
H         33.26863       68.60714       63.01790
H         33.82121       67.86953       64.56426
H         30.99045       66.74301       65.41457
H         30.23310       67.28361       66.94021
H         29.72548       68.03297       65.38188
N         34.83822       71.24509       63.42433
C         35.36758       71.81943       62.19053
C         35.30684       70.77623       61.10313
O         34.90179       69.66125       61.38572
C         36.82457       72.26509       62.40850
C         36.92478       73.28339       63.50360
O         36.37652       73.00340       64.69762
O         37.54979       74.31918       63.34053
H         35.49853       70.92568       64.14723
H         34.77492       72.71772       61.90794
H         37.26992       72.68340       61.48106
H         37.42273       71.37987       62.71843
N         35.68642       71.04726       59.82628
C         35.64587       70.01208       58.80489
C         36.64195       68.88610       59.10180
O         36.19940       67.74629       59.11038
C         35.83141       70.57514       57.38293
C         35.67474       69.45772       56.37768
C         34.44863       68.77565       56.25508
C         36.76220       69.06126       55.58363
C         34.31972       67.71101       55.36159
C         36.62816       67.99406       54.69094
C         35.40932       67.31841       54.58160
H         35.97869       72.00429       59.57643
H         34.61810       69.58524       58.81612
H         36.81831       71.05487       57.27365
H         35.06721       71.35676       57.18148
H         33.59333       69.05989       56.85552
H         37.71692       69.56521       55.66834
H         33.37589       67.18731       55.27983
H         37.47252       67.68598       54.08930
H         35.30912       66.48900       53.89453
N         37.97774       69.09002       59.36105
C         38.92022       68.01781       59.67993
C         38.39469       67.07177       60.74255
O         38.46896       65.86140       60.59001
C         40.14020       68.77163       60.24451
C         40.11156       70.05195       59.45245
C         38.62502       70.38615       59.46399
H         39.18928       67.47561       58.74662
H         39.96013       69.07406       61.30262
H         41.09372       68.20317       60.21224
H         40.76715       70.86406       59.83509
H         40.41042       69.80602       58.40885
H         38.32396       70.85148       60.42448
H         38.43142       71.07437       58.62589
N         37.84314       67.60489       61.86035
C         37.35918       66.85754       63.01157
C         36.20182       65.94916       62.62941
O         36.22367       64.78180       62.99253
C         36.97005       67.85648       64.12633
C         38.20486       68.70074       64.54372
C         37.92636       69.73516       65.58614
O         38.91842       70.56733       65.94805
O         36.82027       69.86108       66.08259
H         37.76517       68.63138       61.88207
H         38.18049       66.23141       63.42761
H         36.59257       67.29808       65.01057
H         36.16120       68.52683       63.76239
H         38.61454       69.26395       63.68531
H         39.01195       68.03174       64.90848
N         35.18122       66.40937       61.85479
C         34.05767       65.60368       61.42176
H         33.11205       66.10165       61.72009
H         34.07366       65.51665       60.31416
H         34.07330       64.58388       61.85794
H         35.21715       67.37289       61.51529
Ca        37.57941       73.11695       66.52967
O         35.13010       70.08673       68.81309
H         34.38639       69.66271       69.30821
H         35.06950       69.69939       67.90515

Ca 1.0



