%chk=holoCaM.loop4.water3.frame109.chk
%nprocshared=20
%mem=10GB
%nosave
#b3lyp/svp scf=(tight,noincore,xqc) Test 
#IOP(5/87=12) Density=Current Pop=(MK,readradii) iop(6/33=2) iop(6/42=6)

holoCaM.loop4.water3.frame109 

   -3  1 
C         -8.96882        6.51522      136.41169
C         -9.16749        5.43764      135.39092
O         -8.17575        4.92876      134.88922
H         -8.41231        7.36132      135.95868
H         -9.93784        6.88403      136.80536
H         -8.37709        6.10538      137.25893
N        -10.41933        4.99779      135.06699
C        -10.63184        3.84793      134.20145
C        -11.88600        4.00348      133.34871
O        -12.93981        4.25970      133.91588
C        -10.75633        2.59222      135.08909
C        -10.60706        1.34359      134.27700
O        -10.33689        1.45711      132.96437
O        -10.61258        0.25241      134.81980
H        -11.22633        5.38738      135.57688
H         -9.73961        3.71546      133.54900
H        -11.71054        2.60130      135.65835
H         -9.91519        2.58049      135.81673
N        -11.86552        3.79690      131.99356
C        -13.05536        3.90330      131.14681
C        -13.48217        2.53145      130.58400
O        -14.57938        2.45356      130.05257
C        -12.81222        4.91361      129.96463
C        -11.97648        6.16386      130.33772
C        -14.12290        5.35390      129.28104
C        -12.54261        7.05029      131.44369
H        -10.98046        3.53627      131.55010
H        -13.89350        4.28178      131.77033
H        -12.19131        4.39191      129.20017
H        -11.82878        6.78596      129.42629
H        -10.97586        5.82377      130.64535
H        -14.67662        4.50182      128.84712
H        -14.78728        5.87580      130.00079
H        -13.90219        6.04552      128.43941
H        -11.84509        7.89962      131.61036
H        -13.53143        7.46176      131.16265
H        -12.62861        6.48928      132.39323
N        -12.65753        1.43113      130.58877
C        -12.97768        0.20537      129.84380
C        -12.62088       -1.11552      130.54655
O        -12.88764       -2.15585      129.95872
C        -12.33466        0.29497      128.44073
C        -10.83032        0.36565      128.41703
O        -10.10732        0.32139      129.54815
O        -10.25348        0.46946      127.34722
H        -11.70715        1.53163      130.95298
H        -14.07452        0.15807      129.66444
H        -12.72565        1.21030      127.94406
H        -12.65385       -0.57968      127.83426
N        -12.06878       -1.18015      131.79288
C        -11.83770       -2.43792      132.50338
C        -10.73765       -3.34732      131.95905
O        -10.58130       -4.42513      132.51644
H        -11.89742       -0.31127      132.30945
H        -12.79410       -3.00537      132.52757
H        -11.56522       -2.20765      133.55610
N         -9.93420       -3.01260      130.90684
C         -8.89659       -3.90455      130.36278
C         -7.69898       -4.18131      131.29328
O         -6.80549       -4.90323      130.87123
C         -8.38775       -3.37922      128.99597
C         -7.71910       -2.03312      129.02725
O         -7.63844       -1.32392      130.16240
O         -7.25634       -1.56718      127.99948
H        -10.10314       -2.11471      130.43633
H         -9.37213       -4.88595      130.14051
H         -9.24565       -3.31786      128.29327
H         -7.66433       -4.11443      128.58028
N         -7.60665       -3.68673      132.55987
C         -6.48907       -3.97426      133.45445
C         -5.21258       -3.20250      133.15053
O         -4.25620       -3.38327      133.89332
H         -8.38492       -3.14704      132.94362
H         -6.29742       -5.06946      133.47413
H         -6.78250       -3.67603      134.48459
N         -5.12012       -2.29965      132.13175
C         -3.95018       -1.45987      131.88180
C         -4.31334        0.01608      132.00990
O         -5.46653        0.33666      132.27729
C         -3.38000       -1.72709      130.47018
C         -2.83271       -3.15083      130.29756
C         -2.05962       -3.31453      129.00473
N         -1.45019       -4.48904      128.72783
O         -1.95522       -2.38589      128.21481
H         -5.92653       -2.16565      131.51627
H         -3.14735       -1.66246      132.62513
H         -2.52216       -1.04456      130.30677
H         -4.14575       -1.51181      129.69137
H         -3.66603       -3.88501      130.33641
H         -2.12828       -3.36322      131.13019
H         -1.51355       -5.28129      129.38294
H         -0.90125       -4.60090      127.86208
N         -3.36446        0.97593      131.80720
C         -3.61713        2.40989      131.84886
C         -3.42977        2.97653      130.45176
O         -2.36141        2.82319      129.87218
C         -2.66719        3.09904      132.86642
C         -2.84964        4.62778      132.86411
C         -2.90956        2.56683      134.28592
H         -2.40008        0.68488      131.58354
H         -4.66106        2.61480      132.17396
H         -1.61197        2.88144      132.58596
H         -2.60032        5.04932      131.86999
H         -3.89541        4.90382      133.11913
H         -2.16178        5.10048      133.59650
H         -2.73355        1.47206      134.33171
H         -2.21170        3.05447      135.00007
H         -3.95243        2.77726      134.60823
N         -4.44087        3.67320      129.86475
C         -4.34949        4.30787      128.55657
C         -3.79095        5.71909      128.70513
O         -3.63404        6.19397      129.82016
C         -5.76701        4.29567      127.92805
C         -5.88951        4.86842      126.54186
N         -5.24483        4.30265      125.49695
O         -6.60907        5.83826      126.35455
H         -5.30151        3.82116      130.40607
H         -3.65439        3.72093      127.91626
H         -6.44878        4.85519      128.60322
H         -6.12419        3.24735      127.87902
H         -4.64959        3.47323      125.63065
H         -5.35366        4.68982      124.54829
N         -3.42918        6.43526      127.60616
C         -2.88755        7.79317      127.65546
C         -3.88762        8.75801      128.25816
O         -3.52188        9.53523      129.12782
C         -2.40939        8.24050      126.24769
C         -3.47442        8.26329      125.17024
C         -4.38329        9.33159      125.06610
C         -3.55460        7.20983      124.24370
C         -5.36842        9.32936      124.07349
C         -4.54122        7.20758      123.25534
C         -5.45346        8.26251      123.16793
O         -6.40269        8.24058      122.21096
H         -3.51804        5.97747      126.68990
H         -1.97250        7.79668      128.29027
H         -1.62244        7.51155      125.95427
H         -1.90864        9.23226      126.29123
H         -4.33257       10.16595      125.75441
H         -2.86349        6.37791      124.29689
H         -6.06599       10.15528      124.01126
H         -4.59802        6.38034      122.55946
H         -7.05562        8.94856      122.11699
N         -5.17885        8.75236      127.83642
C         -6.20496        9.65131      128.34278
C         -6.44495        9.38323      129.82344
O         -6.44845       10.31959      130.60976
C         -7.47413        9.48772      127.47302
C         -8.50136       10.61044      127.67499
C         -9.59362       10.52332      126.64235
O        -10.87703       10.37933      127.02058
O         -9.32281       10.60583      125.45334
H         -5.44275        8.07193      127.10884
H         -5.85990       10.69933      128.19366
H         -7.93798        8.48703      127.61891
H         -7.14184        9.55895      126.41337
H         -8.00310       11.59663      127.54681
H         -8.92928       10.55752      128.69769
N         -6.58247        8.10153      130.27372
C         -6.77853        7.74189      131.68263
C         -5.61304        8.15034      132.57458
O         -5.79015        8.18085      133.78532
C         -6.90945        6.21114      131.84004
C         -8.09587        5.61297      131.08065
C         -8.11023        4.10948      131.13399
O         -7.22517        3.42557      131.88369
O         -8.91442        3.49427      130.45610
H         -6.52880        7.35138      129.57025
H         -7.70441        8.24271      132.04430
H         -7.01515        5.95002      132.91344
H         -5.96819        5.75425      131.46627
H         -8.05012        5.89354      130.01186
H         -9.02861        6.01691      131.51505
N         -4.36967        8.36660      132.06867
C         -3.22649        8.64414      132.90913
H         -2.31541        8.74900      132.28169
H         -3.38597        9.58475      133.47536
H         -3.06678        7.80235      133.61729
H         -4.21203        8.28793      131.06063
Ca        -8.60522        0.51121      131.91571
O         -7.10992        1.66152      134.60325
H         -7.08720        1.80600      135.58183
H         -7.67406        2.39614      134.25767
O         -8.02981       -0.98684      134.09354
H         -8.92453       -1.39619      134.19787
H         -7.53534       -1.24692      134.90708
O         -7.19307        1.40699      129.30088
H         -7.79187        1.42937      128.51256
H         -6.40290        0.89285      128.99958

Ca 1.0



