%chk=holoCaM.loop2.water2.frame494.chk
%nprocshared=20
%mem=10GB
%nosave
#b3lyp/svp scf=(tight,noincore,xqc) Test 
#IOP(5/87=12) Density=Current Pop=(MK,readradii) iop(6/33=2) iop(6/42=6)

holoCaM.loop2.water2.frame494 

   -2  1 
C        -18.66964       89.48084       23.81210
C        -19.25271       89.81163       25.14998
O        -18.95329       89.11174       26.10777
H        -17.56256       89.53003       23.86844
H        -18.97635       88.45172       23.52905
H        -19.02355       90.18472       23.03071
N        -20.10375       90.86590       25.30036
C        -20.70597       91.18291       26.58422
C        -21.58892       90.02841       27.02720
O        -22.50607       89.66856       26.30256
C        -21.54724       92.48132       26.51169
C        -22.07127       92.89839       27.86702
O        -21.74049       92.22365       28.97609
O        -22.78588       93.87464       27.97674
H        -20.32491       91.45497       24.48244
H        -19.88571       91.36572       27.31136
H        -22.40282       92.33434       25.81639
H        -20.92099       93.31392       26.12192
N        -21.37353       89.41541       28.22292
C        -22.25922       88.39526       28.77098
C        -23.64357       88.98348       29.00095
O        -24.61478       88.44443       28.48962
C        -21.68838       87.85650       30.08780
H        -20.56388       89.71575       28.78232
H        -22.31952       87.53736       28.06459
H        -21.59212       88.66135       30.84629
H        -22.34672       87.05827       30.49080
H        -20.68156       87.42159       29.90696
N        -23.79065       90.12919       29.73051
C        -25.07014       90.80343       29.96979
C        -25.79222       91.25727       28.68979
O        -26.92943       91.69523       28.79965
C        -24.85229       92.02761       30.89423
C        -24.31563       91.62450       32.24462
O        -23.12172       92.06711       32.69307
O        -24.97759       90.88872       32.95841
H        -22.94173       90.53252       30.14972
H        -25.74285       90.08122       30.48322
H        -25.81531       92.55545       31.06267
H        -24.15319       92.73546       30.40036
N        -25.22660       91.16147       27.45036
C        -25.91490       91.45931       26.19990
C        -26.19763       92.92696       25.94417
O        -26.75482       93.22576       24.89735
H        -24.27581       90.80364       27.36508
H        -26.86175       90.87677       26.15898
H        -25.27388       91.11517       25.35963
N        -25.86574       93.89890       26.83463
C        -26.17630       95.30893       26.62646
C        -25.29994       95.95206       25.56054
O        -25.80124       96.76978       24.80227
C        -26.00710       96.09269       27.94426
C        -26.84598       95.50567       29.05969
N        -28.19042       95.39419       28.94432
O        -26.29939       95.11815       30.08043
H        -25.42415       93.63084       27.72351
H        -27.24629       95.41516       26.34130
H        -26.31745       97.14828       27.78389
H        -24.93631       96.09049       28.24400
H        -28.68214       95.70943       28.09663
H        -28.74488       94.98023       29.70857
N        -23.96529       95.67725       25.49731
C        -23.01654       96.37820       24.64316
C        -21.85110       96.97664       25.42911
O        -21.01039       97.60962       24.80716
H        -23.60057       94.92357       26.08354
H        -23.51848       97.19564       24.08310
H        -22.59924       95.66024       23.90531
N        -21.70930       96.79749       26.77760
C        -20.60525       97.31857       27.57817
C        -19.77229       96.13718       28.06405
O        -20.32096       95.23489       28.68013
C        -21.19631       98.16524       28.73361
C        -20.13098       98.69472       29.69399
O        -21.89584       99.26267       28.20236
H        -22.40686       96.24801       27.29308
H        -19.94894       97.98184       26.97352
H        -21.88613       97.54422       29.34430
H        -22.80109       98.94162       27.94985
H        -19.59063       97.85632       30.18130
H        -19.40410       99.33806       29.15650
H        -20.62011       99.29513       30.49209
N        -18.43062       96.07786       27.80530
C        -17.59792       94.90949       28.09074
C        -16.71782       95.16927       29.30772
O        -15.84503       96.02470       29.25374
C        -16.73734       94.55896       26.82740
C        -17.64052       94.17503       25.62675
C        -15.71451       93.44177       27.11363
C        -16.86649       94.00859       24.31262
H        -17.97757       96.89027       27.35956
H        -18.24184       94.03500       28.32560
H        -16.15862       95.47069       26.55582
H        -18.38748       94.97858       25.45625
H        -18.18860       93.23383       25.85197
H        -15.02956       93.74298       27.92487
H        -16.22578       92.49770       27.38480
H        -15.05329       93.25869       26.24525
H        -16.13867       93.17402       24.35787
H        -17.57463       93.77854       23.48996
H        -16.32831       94.94857       24.06403
N        -16.89225       94.42812       30.44287
C        -16.02142       94.50656       31.61733
C        -14.67257       93.85948       31.32417
O        -14.48502       93.33357       30.24564
C        -16.66858       93.76342       32.80806
C        -17.97990       94.37585       33.20037
O        -18.02758       95.65871       33.60758
O        -19.00206       93.70974       33.17376
H        -17.68148       93.77032       30.47539
H        -15.88197       95.57269       31.90053
H        -16.01237       93.81978       33.69982
H        -16.81247       92.69021       32.54584
N        -13.68125       93.85064       32.26055
C        -12.38915       93.20115       32.04253
C        -12.50022       91.68207       31.86654
O        -11.99631       91.20838       30.85452
C        -11.40140       93.56639       33.17039
C        -10.02835       92.96640       32.94723
C         -9.30127       93.23908       31.77157
C         -9.46015       92.12602       33.91985
C         -8.03935       92.67192       31.57246
C         -8.19311       91.56896       33.71987
C         -7.48490       91.83884       32.54625
H        -13.84243       94.34534       33.14921
H        -11.95781       93.62804       31.11102
H        -11.81023       93.24650       34.15025
H        -11.29653       94.67258       33.19989
H         -9.70713       93.88391       31.00335
H         -9.99465       91.90400       34.83482
H         -7.49071       92.87957       30.66251
H         -7.76029       90.92652       34.47538
H         -6.50603       91.40370       32.39168
N        -13.10946       90.83239       32.75690
C        -13.17060       89.38412       32.57684
C        -13.92871       88.99836       31.31686
O        -13.56011       88.01712       30.68916
C        -13.82670       88.87987       33.86878
C        -14.70461       90.04162       34.27386
C        -13.80141       91.23480       33.96845
H        -12.15675       88.92834       32.51343
H        -14.32219       87.88713       33.80184
H        -13.03465       88.81589       34.64978
H        -15.57644       90.06272       33.58409
H        -15.08940       90.01104       35.31566
H        -14.44951       92.11770       33.84981
H        -13.05049       91.39166       34.77187
N        -14.94861       89.76510       30.84810
C        -15.62730       89.50779       29.58180
C        -14.63550       89.62284       28.43291
O        -14.54800       88.70029       27.63429
C        -16.81828       90.47616       29.42855
C        -17.87792       90.17026       30.51203
C        -19.05920       91.08899       30.49173
O        -19.14165       91.99381       29.68033
O        -20.04810       90.90640       31.38650
H        -15.22392       90.59555       31.39067
H        -16.05367       88.47938       29.57457
H        -17.28771       90.34068       28.42841
H        -16.46526       91.52633       29.51782
H        -17.43253       90.24747       31.52417
H        -18.24545       89.13049       30.36999
N        -13.80634       90.69843       28.33373
C        -12.77987       90.84635       27.32159
H        -11.78356       90.86989       27.81454
H        -12.78503       90.01594       26.58587
H        -12.92700       91.80406       26.78128
H        -13.86664       91.43445       29.04198
Ca       -21.70682       93.42170       31.56486
O        -23.04800       95.68312       30.48640
H        -23.53327       96.36464       31.01423
H        -23.75360       95.09426       30.12529
O        -20.81741       96.41045       32.29851
H        -21.21314       97.26455       32.60441
H        -20.66239       95.89939       33.13143

Ca 1.0



