%chk=holoCaM.loop4.water3.frame429.chk
%nprocshared=20
%mem=10GB
%nosave
#b3lyp/svp scf=(tight,noincore,xqc) Test 
#IOP(5/87=12) Density=Current Pop=(MK,readradii) iop(6/33=2) iop(6/42=6)

holoCaM.loop4.water3.frame429 

   -3  1 
C        115.92185       -7.46445       46.48764
C        116.34585       -8.60228       47.36720
O        115.56945       -9.53355       47.52786
H        115.00299       -6.99632       46.89820
H        116.71505       -6.69198       46.41056
H        115.70782       -7.85171       45.46873
N        117.56384       -8.59547       47.98171
C        118.03426       -9.69622       48.81478
C        119.32630       -9.32675       49.52881
O        120.28614       -8.91189       48.89231
C        118.23664      -10.97844       47.98394
C        118.66799      -12.11249       48.86797
O        119.71903      -12.69456       48.65474
O        117.90457      -12.46999       49.91847
H        118.16909       -7.76818       47.86019
H        117.25576       -9.90444       49.58334
H        118.99086      -10.80323       47.18615
H        117.28571      -11.28043       47.50168
N        119.40795       -9.50350       50.87426
C        120.54661       -9.14201       51.70621
C        121.20928      -10.39586       52.28482
O        122.42548      -10.40067       52.39899
C        120.05039       -8.18868       52.84563
C        119.36137       -6.93084       52.24675
C        121.20427       -7.77437       53.78295
C        118.64094       -6.06522       53.28637
H        118.59005       -9.90670       51.34924
H        121.31549       -8.59435       51.11444
H        119.29731       -8.74482       53.44763
H        118.58459       -7.24812       51.52492
H        120.10154       -6.31364       51.69250
H        121.97914       -7.20933       53.22184
H        120.83962       -7.14460       54.61879
H        121.67533       -8.66136       54.25255
H        119.34327       -5.62140       54.01903
H        118.12267       -5.23029       52.77005
H        117.87791       -6.66698       53.82546
N        120.47139      -11.45816       52.73460
C        121.03683      -12.56773       53.51088
C        120.88037      -13.96277       52.88954
O        121.36060      -14.90848       53.50302
C        120.43417      -12.51801       54.93690
C        118.93399      -12.66023       55.02893
O        118.24313      -12.80616       54.03579
O        118.34188      -12.60566       56.23600
H        119.45751      -11.43753       52.59298
H        122.13201      -12.42355       53.63078
H        120.69792      -11.53626       55.38609
H        120.89702      -13.31292       55.55895
N        120.27177      -14.19073       51.69068
C        120.18387      -15.51668       51.06986
C        119.26211      -16.51746       51.76786
O        119.13984      -17.62984       51.27523
H        119.91119      -13.38909       51.15979
H        121.20552      -15.94807       50.98744
H        119.78906      -15.39477       50.03833
N        118.56701      -16.19648       52.89229
C        117.63210      -17.08647       53.59715
C        116.36485      -17.47559       52.80270
O        115.57992      -18.25368       53.32912
C        117.16373      -16.38875       54.89851
C        116.45096      -15.09881       54.58744
O        116.40953      -14.66020       53.31130
O        115.91005      -14.46044       55.47428
H        118.73018      -15.26740       53.29323
H        118.17511      -18.01731       53.87145
H        118.03049      -16.17114       55.55861
H        116.47299      -17.06398       55.44898
N        116.07857      -16.97941       51.56484
C        114.90153      -17.37106       50.79755
C        113.57808      -16.70873       51.18331
O        112.60373      -17.02866       50.51703
H        116.75627      -16.36413       51.10290
H        114.80382      -18.47921       50.81444
H        115.07351      -17.08715       49.73749
N        113.43972      -15.77483       52.17870
C        112.16494      -15.10348       52.47567
C        112.27984      -13.56399       52.25450
O        113.00151      -12.95382       53.27996
C        111.70567      -15.41265       53.91485
C        111.47149      -16.91250       54.15274
C        110.99486      -17.20946       55.55666
N        110.73659      -18.48516       55.92336
O        110.83795      -16.30803       56.36858
H        114.25624      -15.52286       52.74148
H        111.37723      -15.46886       51.78164
H        110.75189      -14.87268       54.10635
H        112.47173      -15.04855       54.63493
H        112.41809      -17.46838       53.97983
H        110.70527      -17.27887       53.43579
H        110.86143      -19.25949       55.25521
H        110.41008      -18.69920       56.87756
N        110.96901      -12.91219       52.16162
C        111.10477      -11.45158       51.93000
C        110.96616      -10.74129       53.27137
O        109.99870      -10.98012       53.98051
C        110.07617      -10.91112       50.88902
C        110.17766       -9.37690       50.75989
C        110.32817      -11.51148       49.48850
H        110.41674      -13.38955       51.41917
H        112.10398      -11.20679       51.49494
H        109.04522      -11.16542       51.21835
H        109.93832       -8.87801       51.72032
H        111.20089       -9.07367       50.44604
H        109.45148       -9.00237       50.00798
H        109.60030      -11.09836       48.75910
H        111.35461      -11.26365       49.13869
H        110.21290      -12.61109       49.46018
N        111.88530       -9.80556       53.64545
C        111.84071       -9.05119       54.89642
C        111.37858       -7.62477       54.62267
O        111.16439       -7.26771       53.47342
C        113.26029       -9.11362       55.52033
C        113.47355       -8.38063       56.82123
N        112.79248       -8.72477       57.93709
O        114.29782       -7.47949       56.87331
H        112.63833       -9.57576       52.98162
H        111.09854       -9.49904       55.59225
H        113.98394       -8.71079       54.77570
H        113.50597      -10.17661       55.70173
H        112.10416       -9.48979       57.92011
H        112.96105       -8.22475       58.82257
N        111.14120       -6.76911       55.65580
C        110.72631       -5.37857       55.49115
C        111.78831       -4.56082       54.77216
O        111.43514       -3.81914       53.86695
C        110.27683       -4.77014       56.84711
C        111.27272       -4.85541       57.98513
C        111.02849       -5.74282       59.05030
C        112.42812       -4.05823       58.01775
C        111.93231       -5.84996       60.10848
C        113.33394       -4.16805       59.07799
C        113.09008       -5.06900       60.12497
O        113.95602       -5.19070       61.15082
H        111.23490       -7.13426       56.61139
H        109.80518       -5.34767       54.86461
H        109.37343       -5.35194       57.13768
H        109.93984       -3.71894       56.71694
H        110.14168       -6.36491       59.05853
H        112.62955       -3.34724       57.22889
H        111.73265       -6.54584       60.91387
H        114.22365       -3.55161       59.08504
H        114.77198       -4.67314       61.19993
N        113.11174       -4.66225       55.09132
C        114.15453       -3.89860       54.40284
C        114.33090       -4.33749       52.93947
O        115.08230       -3.69287       52.22238
C        115.48529       -4.03588       55.19151
C        116.61955       -3.09017       54.75162
C        116.23923       -1.64496       54.91857
O        116.23474       -0.89436       53.95612
O        115.90919       -1.16929       56.13504
H        113.38009       -5.28689       55.86452
H        113.84712       -2.83014       54.43464
H        115.83927       -5.08832       55.12603
H        115.28200       -3.81729       56.26371
H        116.91784       -3.29063       53.70435
H        117.51114       -3.28664       55.38432
N        113.67238       -5.41907       52.42553
C        113.83135       -5.91469       51.06120
C        112.54899       -5.77058       50.24918
O        112.57446       -6.09273       49.06896
C        114.19636       -7.41353       51.10679
C        115.43163       -7.71450       51.96639
C        115.69004       -9.19093       52.11357
O        116.70190       -9.60586       52.89597
O        114.97848      -10.01956       51.56712
H        113.04791       -5.95314       53.03138
H        114.62943       -5.34636       50.53527
H        114.36099       -7.79895       50.07562
H        113.33072       -7.95389       51.54468
H        115.28106       -7.31282       52.99020
H        116.31496       -7.22287       51.51519
N        111.38525       -5.32074       50.79938
C        110.16151       -5.21293       50.03768
H        109.34138       -4.84841       50.69334
H        110.29659       -4.49507       49.20210
H        109.87593       -6.20875       49.63699
H        111.34111       -5.06108       51.78939
Ca       115.11794      -13.02737       52.62398
O        115.49750      -11.45396       54.85243
H        116.03841      -11.06511       55.58236
H        114.85228      -12.05336       55.30547
O        116.38261      -14.69096       49.21269
H        116.10418      -15.21794       48.42372
H        117.33644      -14.92456       49.33974
O        114.57274      -12.20774       49.11727
H        114.94817      -12.50662       48.25129
H        115.28131      -11.63695       49.50584

Ca 1.0



