%chk=holoCaM-CaMKII.loop2.water2.frame362.chk
%nprocshared=20
%mem=10GB
%nosave
#b3lyp/svp scf=(tight,noincore,xqc) Test 
#IOP(5/87=12) Density=Current Pop=(MK,readradii) iop(6/33=2) iop(6/42=6)

holoCaM-CaMKII.loop2.water2.frame362 

   -2  1 
C         37.67719       53.20870       45.83976
C         38.27495       53.00488       47.20518
O         39.33489       52.40913       47.30898
H         36.72956       53.78773       45.89338
H         38.38867       53.78086       45.20680
H         37.46514       52.23087       45.36256
N         37.65050       53.50806       48.30210
C         38.19926       53.46564       49.65301
C         38.35244       52.05344       50.20668
O         37.38230       51.30909       50.22983
C         37.28197       54.27532       50.58631
C         37.83629       54.32902       51.97044
O         38.95065       54.78555       52.15461
O         37.11938       53.85265       53.00603
H         36.75914       54.00786       48.15614
H         39.19051       53.97320       49.64183
H         36.26554       53.82563       50.60950
H         37.19890       55.31586       50.20668
N         39.54370       51.66620       50.75536
C         39.76966       50.38259       51.41225
C         40.20006       50.51754       52.88096
O         40.30541       49.48216       53.52496
C         40.85225       49.61520       50.64237
H         40.32557       52.32693       50.71865
H         38.83615       49.77969       51.39370
H         41.02211       48.61269       51.09092
H         40.54588       49.47657       49.58414
H         41.81224       50.17694       50.66162
N         40.52448       51.71512       53.46898
C         41.07973       51.80401       54.82858
C         40.55159       52.97260       55.67320
O         40.96319       53.07832       56.82092
C         42.62499       51.83955       54.75515
C         43.22448       53.00221       54.00684
O         42.52721       53.84794       53.47421
O         44.56332       53.10186       53.91625
H         40.51971       52.56326       52.89123
H         40.82570       50.88055       55.39508
H         42.97461       50.90709       54.26252
H         43.03355       51.84569       55.78916
N         39.64817       53.87871       55.20374
C         39.11936       54.98309       55.99838
C         40.12368       56.07453       56.35845
O         39.73674       56.97471       57.09023
H         39.26749       53.75236       54.26669
H         38.68335       54.56479       56.93208
H         38.29507       55.47264       55.43506
N         41.41472       56.07515       55.91252
C         42.41675       57.05640       56.34380
C         42.22044       58.49584       55.82169
O         43.04790       59.33668       56.14654
C         43.83996       56.56475       55.99288
C         44.16874       56.52980       54.52544
N         45.44121       56.30237       54.14226
O         43.31070       56.72691       53.68002
H         41.72482       55.30025       55.31613
H         42.39270       57.08727       57.45573
H         44.01482       55.55363       56.42292
H         44.56034       57.25942       56.47548
H         46.18479       56.14053       54.83638
H         45.68610       56.32597       53.14902
N         41.16597       58.86887       55.04170
C         40.92697       60.24175       54.59982
C         41.67690       60.67760       53.34385
O         41.42162       61.78616       52.89473
H         40.43054       58.18447       54.84831
H         41.10450       60.94981       55.43942
H         39.85064       60.32205       54.33717
N         42.58554       59.88482       52.70864
C         43.26711       60.24061       51.45747
C         43.04753       59.15651       50.40026
O         42.36408       58.18343       50.67286
C         44.78704       60.42611       51.73074
C         45.05228       61.66547       52.58648
O         45.32710       59.29863       52.37193
H         42.81979       58.98055       53.12918
H         42.87720       61.19315       51.03481
H         45.34139       60.61544       50.78514
H         45.37457       58.57420       51.69543
H         44.56759       61.57899       53.58021
H         46.14678       61.79420       52.72996
H         44.66615       62.57171       52.07002
N         43.66217       59.23932       49.18363
C         43.68959       58.16344       48.19428
C         45.07587       57.53549       48.23722
O         46.07240       58.24260       48.16701
C         43.29837       58.68323       46.77021
C         41.76403       58.92353       46.71849
C         43.72500       57.68508       45.66797
C         41.24261       59.44945       45.37631
H         44.24341       60.06620       48.98094
H         42.97272       57.35346       48.45392
H         43.84370       59.63149       46.56630
H         41.48247       59.65470       47.50523
H         41.23584       57.96648       46.93086
H         43.50321       58.07709       44.65597
H         44.82466       57.53595       45.67717
H         43.22443       56.70484       45.80072
H         41.72491       60.41526       45.12175
H         41.41132       58.72203       44.55554
H         40.14445       59.60134       45.44308
N         45.18863       56.17740       48.30242
C         46.44682       55.44061       48.34379
C         46.74289       54.84175       46.98978
O         45.97131       55.05716       46.06954
C         46.34148       54.33081       49.40308
C         46.12317       54.91843       50.75596
O         45.10357       54.66785       51.37845
O         47.06041       55.72782       51.28483
H         44.32604       55.61835       48.26026
H         47.29430       56.12169       48.58098
H         47.26927       53.72508       49.44309
H         45.49703       53.65291       49.14183
N         47.88287       54.12981       46.76507
C         48.24202       53.66132       45.43452
C         47.23963       52.63775       44.88306
O         46.68709       52.92940       43.83301
C         49.70632       53.17292       45.37420
C         50.10247       52.86816       43.95229
C         50.15275       53.90189       42.99979
C         50.41106       51.55572       43.56007
C         50.49965       53.62580       41.67685
C         50.75389       51.28315       42.23213
C         50.79756       52.31698       41.29177
H         48.54825       53.99165       47.54211
H         48.21064       54.55643       44.77340
H         49.86913       52.29589       46.01533
H         50.38439       53.96277       45.76486
H         49.92537       54.92275       43.28093
H         50.37371       50.74386       44.27613
H         50.53460       54.42818       40.95145
H         50.98262       50.26961       41.93101
H         51.06190       52.10513       40.26456
N         46.91976       51.44682       45.49702
C         45.91339       50.51373       44.98368
C         44.60233       51.18015       44.62239
O         44.02217       50.87765       43.58907
C         45.65797       49.57570       46.17596
C         47.01713       49.50948       46.81172
C         47.45063       50.97227       46.76343
H         46.33451       49.95037       44.12163
H         44.99772       50.06817       46.92832
H         45.20174       48.59967       45.90419
H         47.05215       49.04829       47.82167
H         47.66994       48.92057       46.12634
H         47.00658       51.57471       47.58625
H         48.54653       50.96288       46.83827
N         44.08324       52.10062       45.47324
C         42.78717       52.74758       45.32315
C         42.74369       53.51937       44.01479
O         41.86784       53.25863       43.20257
C         42.50743       53.63863       46.56350
C         42.54549       52.78650       47.86165
C         42.37171       53.54047       49.14028
O         42.53694       52.94693       50.19317
O         42.07005       54.84624       49.17730
H         44.66967       52.34957       46.28056
H         41.99087       51.96940       45.30426
H         41.51174       54.12367       46.46329
H         43.27929       54.43151       46.62010
H         43.52410       52.29099       47.97823
H         41.77998       51.98548       47.81467
N         43.70474       54.43770       43.72158
C         43.79790       55.14897       42.46372
H         44.76376       54.89308       41.97594
H         42.97598       54.88804       41.76610
H         43.77722       56.24177       42.65396
H         44.44007       54.61768       44.40769
Ca        41.82150       55.61232       51.28030
O         39.69726       56.85400       49.56742
H         38.76251       57.15435       49.44575
H         39.91938       56.38301       48.72582
O         39.87791       57.39188       52.54323
H         39.44806       56.90816       53.29277
H         39.43596       58.27636       52.53439

Ca 1.0



