%chk=holoCaM-CaMKII.loop1.water2.frame443.chk
%nprocshared=20
%mem=10GB
%nosave
#b3lyp/svp scf=(tight,noincore,xqc) Test 
#IOP(5/87=12) Density=Current Pop=(MK,readradii) iop(6/33=2) iop(6/42=6)

holoCaM-CaMKII.loop1.water2.frame443 

   0  1 
C         74.53624       75.47994        5.15348
C         75.25871       75.08630        3.90437
O         76.28802       74.43361        3.98584
H         73.51542       75.04188        5.13728
H         75.07209       75.10699        6.05163
H         74.46091       76.58558        5.20558
N         74.75442       75.44207        2.69347
C         75.36328       75.03539        1.43619
C         76.77176       75.62048        1.31739
O         76.91134       76.83408        1.31247
C         74.44533       75.46522        0.26552
C         74.78182       74.83809       -1.05394
O         75.75791       73.92506       -1.15539
O         74.11743       75.11532       -2.03799
H         73.87660       75.98524        2.67450
H         75.40070       73.92949        1.43454
H         74.45468       76.57201        0.17198
H         73.40495       75.14056        0.48881
N         77.85844       74.79815        1.22905
C         79.24537       75.26269        1.11365
C         79.83332       74.93756       -0.25448
O         80.97315       75.32503       -0.49468
C         80.10727       74.60290        2.22181
C         79.83819       75.13069        3.64290
C         80.38036       76.56236        3.82610
C         80.27125       77.08722        5.26631
N         78.88261       77.24721        5.69702
H         77.69922       73.78190        1.22347
H         79.30117       76.36673        1.18886
H         81.19135       74.75288        2.02203
H         79.92401       73.50527        2.19399
H         80.38585       74.47475        4.35520
H         78.75775       75.06559        3.87453
H         79.86563       77.27188        3.14755
H         81.46219       76.55656        3.56530
H         80.77249       78.08051        5.30406
H         80.81069       76.40939        5.96496
H         78.40909       76.31904        5.76707
H         78.87292       77.69539        6.64173
H         78.36758       77.86404        5.02756
N         79.13232       74.26461       -1.20803
C         79.63152       73.97194       -2.54618
C         78.77631       74.60094       -3.65240
O         79.14717       74.47579       -4.80781
C         79.81174       72.44531       -2.72074
C         78.59519       71.56963       -2.48350
O         78.71527       70.36219       -2.60479
O         77.39215       72.08058       -2.13997
H         78.19185       73.93590       -0.97553
H         80.64455       74.41671       -2.67812
H         80.59098       72.12122       -1.99546
H         80.20962       72.24944       -3.74061
N         77.65475       75.33478       -3.37731
C         76.88339       76.04868       -4.38707
C         76.27878       75.15285       -5.44435
O         76.51788       75.38319       -6.62181
H         77.34813       75.45408       -2.40564
H         77.52834       76.81638       -4.86665
H         76.04885       76.58030       -3.87878
N         75.47174       74.11700       -5.09460
C         74.79624       73.24321       -6.05647
C         73.29296       73.13057       -5.76366
O         72.64005       72.29415       -6.37165
C         75.50032       71.86307       -6.11040
C         75.49197       71.10171       -4.83013
O         74.89848       71.62082       -3.75922
O         76.02588       70.00745       -4.75380
H         75.34989       73.93474       -4.08801
H         74.89714       73.63761       -7.09069
H         76.56032       72.01989       -6.40276
H         75.01388       71.23302       -6.88533
N         72.66369       73.96874       -4.88269
C         71.23769       73.90819       -4.59263
C         70.83902       72.79173       -3.64251
O         69.65533       72.70844       -3.34541
H         73.18779       74.74114       -4.45188
H         70.66171       73.84871       -5.54320
H         70.94079       74.85359       -4.08852
N         71.74347       71.90949       -3.11641
C         71.39012       70.84514       -2.18326
C         72.26712       70.89530       -0.87703
O         73.41057       70.07046       -0.99261
C         71.43356       69.45699       -2.87639
C         70.35649       69.30890       -3.96033
O         72.70427       69.18877       -3.41414
H         72.71605       71.98426       -3.39646
H         70.33252       70.99609       -1.87654
H         71.21135       68.68108       -2.11139
H         72.83202       69.76883       -4.20955
H         70.50197       70.05081       -4.77332
H         70.40707       68.28845       -4.39617
H         69.34721       69.45081       -3.51855
N         71.45468       70.37024        0.22926
C         72.10190       70.35877        1.55350
C         72.21706       68.91021        1.96588
O         71.22146       68.19888        1.94804
C         71.29932       71.20765        2.59079
C         71.36157       72.70571        2.18134
C         71.85242       71.00849        4.01904
C         70.49498       73.62367        3.04311
H         70.49543       70.78605        0.26508
H         73.12321       70.79294        1.50901
H         70.24110       70.86161        2.59037
H         71.00531       72.82555        1.13704
H         72.41572       73.06077        2.22066
H         71.25351       71.56691        4.76477
H         71.78676       69.94281        4.32144
H         72.91171       71.33436        4.08242
H         70.82871       73.63278        4.09936
H         70.57435       74.66314        2.66045
H         69.43237       73.30548        2.98984
N         73.41549       68.41837        2.38313
C         73.62262       67.03119        2.77155
C         73.65136       66.90373        4.28247
O         73.59122       67.90283        4.98508
C         74.94898       66.50901        2.15503
C         74.94641       66.60379        0.62977
O         76.02579       67.25830        2.65751
H         74.21099       69.06575        2.46529
H         72.77613       66.40311        2.41626
H         75.07779       65.43985        2.43898
H         76.85107       66.72688        2.51029
H         74.84380       67.66195        0.30869
H         75.90731       66.21072        0.23333
H         74.11509       66.00570        0.20447
N         73.74105       65.66849        4.84750
C         73.86502       65.44124        6.28486
C         75.11109       66.12375        6.81129
O         75.05161       66.73558        7.86800
C         73.91041       63.92659        6.60739
C         72.56065       63.25817        6.30520
O         74.93935       63.30604        5.87788
H         73.75507       64.85344        4.21656
H         72.98418       65.86451        6.81934
H         74.10689       63.81351        7.69907
H         75.01787       62.37678        6.21771
H         71.75893       63.73509        6.90933
H         72.29602       63.34013        5.23109
H         72.60103       62.18258        6.57784
N         76.27330       66.07559        6.10495
C         77.50148       66.73388        6.53060
C         77.30025       68.24339        6.64374
O         77.54603       68.79342        7.70782
C         78.64154       66.33932        5.56339
C         80.02956       66.76355        6.06287
C         81.13465       66.03463        5.28054
C         82.52374       66.35865        5.84622
N         83.55674       65.55083        5.19687
H         76.28100       65.54436        5.21969
H         77.77887       66.32724        7.52900
H         78.46189       66.71742        4.53246
H         78.63474       65.22674        5.52335
H         80.12738       66.46084        7.12799
H         80.14435       67.86704        5.99184
H         81.09034       66.29873        4.20119
H         80.96986       64.93850        5.38257
H         82.53872       66.13975        6.93751
H         82.74229       67.43926        5.70071
H         83.37657       64.53443        5.37046
H         83.57166       65.73488        4.16795
H         84.48858       65.79603        5.60295
N         76.81971       68.96892        5.59297
C         76.59033       70.41817        5.63698
C         75.51334       70.84651        6.63331
O         75.37872       72.04475        6.84404
C         76.16117       70.92819        4.24566
C         77.27719       70.79699        3.19854
C         76.81707       71.18392        1.82183
O         77.61677       71.18992        0.90177
O         75.53310       71.50615        1.58037
H         76.62064       68.46173        4.72156
H         77.54118       70.91527        5.93194
H         75.87955       71.99971        4.29891
H         75.25903       70.36244        3.93841
H         77.65122       69.75472        3.14335
H         78.11563       71.46251        3.49909
N         74.69208       69.95525        7.25425
C         73.65471       70.33700        8.19241
H         72.66807       70.01029        7.80172
H         73.83847       69.83652        9.16603
H         73.61616       71.43307        8.36531
H         74.77687       68.95843        7.04410
Ca        75.53489       70.88762       -1.46812
O         77.72437       68.46774       -0.32168
H         77.84358       68.17131        0.61429
H         78.43445       69.14334       -0.44977
O         75.14978       68.01628       -2.34871
H         74.63167       67.49851       -3.01351
H         75.85397       67.39144       -2.04630

Ca 1.0



