%chk=holoCaM.loop3.water2.frame106.chk
%nprocshared=20
%mem=10GB
%nosave
#b3lyp/svp scf=(tight,noincore,xqc) Test 
#IOP(5/87=12) Density=Current Pop=(MK,readradii) iop(6/33=2) iop(6/42=6)

holoCaM.loop3.water2.frame106 

   0  1 
C        104.16291       14.67130       33.18871
C        104.72321       13.45948       32.51373
O        105.47677       12.72837       33.14148
H        103.05635       14.60062       33.21790
H        104.54733       14.75088       34.22850
H        104.46330       15.58056       32.62737
N        104.42148       13.20298       31.20885
C        104.95687       12.05954       30.48746
C        105.99466       12.56839       29.51331
O        105.65384       13.31196       28.60296
C        103.81471       11.28531       29.80315
C        104.26471        9.98660       29.19900
O        105.55517        9.61085       29.23892
O        103.44312        9.24556       28.69172
H        103.82836       13.87370       30.69537
H        105.45071       11.36864       31.20477
H        103.33218       11.91422       29.02348
H        103.04255       11.05087       30.56046
N        107.31169       12.27864       29.71801
C        108.37869       12.91530       28.95478
C        108.58320       12.29931       27.58180
O        109.32897       12.88118       26.80561
C        109.69889       12.90617       29.75566
C        109.60340       13.60532       31.13136
C        109.24200       15.09650       31.02847
C        109.24387       15.76776       32.40744
N        108.91010       17.18775       32.29424
H        107.56131       11.70173       30.53546
H        108.09614       13.97571       28.78529
H        110.49273       13.41204       29.16401
H        110.01150       11.85113       29.91830
H        110.59671       13.51314       31.62135
H        108.86147       13.09210       31.77977
H        108.22851       15.21673       30.59214
H        109.98228       15.60623       30.37441
H        110.25071       15.66436       32.86928
H        108.49983       15.26745       33.06716
H        109.60948       17.67418       31.68711
H        107.95263       17.30181       31.88854
H        108.92847       17.62191       33.24508
N        107.95394       11.15153       27.19590
C        108.04462       10.60709       25.84373
C        106.69766       10.66895       25.13358
O        106.65124       10.37045       23.94843
C        108.63306        9.18275       25.87057
C        107.81061        8.21168       26.67205
O        108.34882        7.60546       27.74729
O        106.66321        7.95500       26.34597
H        107.36206       10.65363       27.87256
H        108.73150       11.22900       25.22930
H        109.65260        9.23605       26.31096
H        108.73237        8.79827       24.83236
N        105.56722       11.08404       25.77622
C        104.29674       11.28841       25.11641
C        103.73362       10.04176       24.49036
O        103.43875       10.07494       23.30371
H        105.59004       11.32155       26.77529
H        104.40912       12.08422       24.34809
H        103.56033       11.64989       25.86836
N        103.48401        8.93056       25.24115
C        102.72913        7.78967       24.72621
C        101.37831        7.66610       25.43336
O        100.57961        6.83948       25.01668
C        103.54694        6.48205       24.79694
C        103.66189        5.91329       26.19000
N        103.18984        4.67352       26.46544
O        104.17970        6.57112       27.07526
H        103.77958        8.93333       26.22646
H        102.50852        7.95940       23.65031
H        104.55968        6.65613       24.37164
H        103.04548        5.72676       24.15402
H        102.75173        4.09626       25.73282
H        103.26231        4.28214       27.41461
N        101.05552        8.45368       26.50739
C         99.77176        8.44058       27.18241
C         99.85049        7.92778       28.60990
O         98.83613        8.00770       29.28841
H        101.73018        9.12956       26.88069
H         99.03123        7.81127       26.64352
H         99.38554        9.48281       27.18144
N        100.95861        7.29269       29.10534
C        100.95858        6.58759       30.38887
C        102.21060        6.85540       31.21173
O        103.30161        6.72753       30.67612
C        100.88675        5.07098       30.13194
C         99.62008        4.67682       29.41501
C         99.53109        4.76353       28.01480
C         98.51407        4.21662       30.14638
C         98.35314        4.39368       27.35912
C         97.33555        3.85434       29.49020
C         97.25180        3.93938       28.09299
O         96.12160        3.58746       27.44799
H        101.77673        7.16106       28.49284
H        100.06004        6.84203       30.99411
H        100.90907        4.56493       31.12295
H        101.76414        4.70132       29.56131
H        100.37451        5.11113       27.43101
H         98.56072        4.14877       31.22623
H         98.29694        4.45984       26.27979
H         96.48927        3.50810       30.06964
H         95.33971        3.26697       27.92012
N        102.12648        7.11194       32.55506
C        103.29751        7.20400       33.43303
C        103.28335        6.09475       34.48349
O        102.37811        6.03505       35.30264
C        103.43294        8.61022       34.09631
C        102.18785        9.03985       34.92557
C        103.75676        9.63937       33.00947
C        102.36972       10.36485       35.66864
H        101.19232        7.18434       32.98488
H        104.22649        7.05748       32.83904
H        104.31193        8.56924       34.77864
H        101.97574        8.29186       35.71040
H        101.29515        9.12092       34.26979
H        103.98429       10.62810       33.44815
H        104.65864        9.32841       32.43926
H        102.89679        9.72908       32.31906
H        103.24585       10.30602       36.34896
H        102.49715       11.21426       34.96894
H        101.46308       10.56961       36.27668
N        104.28802        5.17249       34.51824
C        104.42330        4.16976       35.57594
C        104.93158        4.81881       36.86368
O        105.13600        6.02081       36.88168
C        105.39095        3.06238       35.11446
O        106.67136        3.58408       34.88784
H        105.00278        5.19954       33.77608
H        103.44079        3.67833       35.75121
H        104.99204        2.61994       34.17365
H        105.44534        2.25983       35.88162
H        107.22385        2.82442       34.56790
N        105.19917        4.07534       37.97562
C        105.79117        4.63869       39.19054
C        107.15056        5.25101       38.90049
O        107.37660        6.39733       39.26217
C        105.95453        3.55358       40.26044
H        105.00317        3.06370       37.94915
H        105.11621        5.41715       39.61216
H        106.39183        3.99409       41.18328
H        104.96410        3.12281       40.51659
H        106.62099        2.73880       39.90515
N        108.09310        4.54020       38.21815
C        109.42256        5.04852       37.89127
C        109.35021        6.39301       37.19537
O        110.01956        7.32112       37.62760
C        110.15899        4.04358       36.99186
H        107.83699        3.59588       37.88927
H        110.01532        5.16399       38.82592
H        110.25587        3.06538       37.50922
H        109.60634        3.88526       36.03993
H        111.17919        4.41291       36.75157
N        108.54375        6.56863       36.11479
C        108.46001        7.82462       35.37438
C        107.99005        8.95329       36.27705
O        108.73727        9.90224       36.47208
C        107.53676        7.66663       34.14521
C        108.11125        6.62685       33.16730
C        107.22798        6.41958       31.98129
O        106.76666        5.31324       31.75364
O        106.97618        7.42699       31.13018
H        107.97271        5.76556       35.81526
H        109.47612        8.08198       34.99750
H        107.45099        8.64335       33.61931
H        106.52091        7.35345       34.47216
H        108.23629        5.64582       33.66863
H        109.10973        6.95850       32.81220
N        106.77131        8.91270       36.87740
C        106.31214        9.94776       37.77688
H        105.29482        9.69998       38.14907
H        106.99721       10.02131       38.64862
H        106.27199       10.92338       37.24895
H        106.14888        8.11985       36.69857
Ca       105.84363        6.86269       29.27502
O        106.66856        4.77116       27.25759
H        106.37734        3.97159       27.76316
H        107.61474        4.59175       27.02961
O        104.30742        4.18487       29.78066
H        105.25725        4.10419       30.04109
H        103.86394        3.40971       30.20661

Ca 1.0



