%chk=holoCaM.loop1.water2.frame159.chk
%nprocshared=20
%mem=10GB
%nosave
#b3lyp/svp scf=(tight,noincore,xqc) Test 
#IOP(5/87=12) Density=Current Pop=(MK,readradii) iop(6/33=2) iop(6/42=6)

holoCaM.loop1.water2.frame159 

   0  1 
C         93.46511       63.35042       77.14522
C         94.66390       62.46244       77.19453
O         95.04344       61.93183       76.16064
H         92.67711       62.93160       77.80360
H         93.74121       64.36901       77.48600
H         93.07229       63.41066       76.10688
N         95.33386       62.27221       78.36774
C         96.49914       61.40851       78.45381
C         96.03454       59.95086       78.37997
O         95.62543       59.40492       79.39596
C         97.30146       61.69655       79.75343
C         98.65754       61.05366       79.71927
O         99.06557       60.47867       78.57771
O         99.39899       61.10941       80.68408
H         95.02540       62.79064       79.20451
H         97.16037       61.67398       77.59680
H         96.72456       61.34818       80.63791
H         97.47117       62.78977       79.86094
N         95.93266       59.31135       77.17992
C         95.31096       57.99905       77.01990
C         96.07627       56.89816       77.75027
O         95.52079       56.33996       78.68692
C         95.11944       57.69871       75.50997
C         94.52893       56.31834       75.17617
C         93.15687       56.05189       75.80977
C         92.67063       54.64135       75.44781
N         91.40882       54.33004       76.11705
H         96.21830       59.82096       76.33353
H         94.29350       58.06624       77.46691
H         96.10162       57.76941       74.99432
H         94.46070       58.48659       75.07939
H         95.24355       55.53694       75.51094
H         94.43563       56.24424       74.06956
H         92.41953       56.80842       75.46079
H         93.24149       56.11418       76.91397
H         93.43613       53.89839       75.76559
H         92.53927       54.55874       74.34557
H         91.12523       53.35395       75.87150
H         91.53024       54.39170       77.15441
H         90.66153       54.99228       75.80741
N         97.32377       56.49408       77.36376
C         98.02758       55.38632       78.02778
C         98.42824       55.69437       79.48493
O         98.87344       54.77723       80.16080
C         99.26889       54.92017       77.21403
C        100.32888       55.98142       77.10974
O        100.04109       57.19957       77.58647
O        101.40006       55.75450       76.57210
H         97.74361       56.93832       76.53426
H         97.32727       54.52051       78.04313
H         98.95507       54.61651       76.19058
H         99.70420       54.02905       77.71523
N         98.27905       56.93360       80.04549
C         98.50321       57.21164       81.45974
C         99.94906       57.16711       81.92163
O        100.25533       56.36914       82.79627
H         97.90350       57.70568       79.47896
H         97.89062       56.50005       82.05721
H         98.13250       58.23360       81.68732
N        100.87604       58.04553       81.43558
C        102.24364       58.15197       81.95562
C        102.59546       59.58326       82.39567
O        103.77272       59.87089       82.56755
C        103.25611       57.58364       80.94056
C        103.26281       58.28410       79.62059
O        103.53646       59.59624       79.55614
O        103.05643       57.65702       78.59442
H        100.59647       58.68310       80.67613
H        102.38093       57.51154       82.85476
H        103.02734       56.50752       80.77955
H        104.27895       57.64492       81.37210
N        101.63233       60.50556       82.68979
C        101.93050       61.83835       83.20366
C        102.29241       62.87235       82.14889
O        102.49960       64.01341       82.54086
H        100.64464       60.21816       82.67279
H        102.71823       61.77660       83.98828
H        101.01642       62.22954       83.70000
N        102.37830       62.58805       80.81464
C        102.66026       63.61085       79.79964
C        101.80803       63.42415       78.54450
O        101.10325       62.43360       78.41860
C        104.16795       63.62037       79.42616
C        105.06045       64.16193       80.55221
O        104.59696       62.34782       79.01566
H        102.24568       61.61602       80.50355
H        102.39459       64.61756       80.19380
H        104.32944       64.31906       78.57862
H        104.72040       61.79509       79.83109
H        106.11643       64.18454       80.20720
H        104.75730       65.19982       80.80863
H        104.99921       63.52965       81.46121
N        101.84078       64.37353       77.56397
C        101.13557       64.29556       76.28804
C        102.15760       64.32666       75.15060
O        102.95214       65.25228       75.06019
C        100.04809       65.42416       76.20215
C         98.79357       64.95206       77.00091
C         99.66361       65.77551       74.74986
C         97.60079       65.91161       76.98468
H        102.41119       65.21847       77.72410
H        100.59399       63.33370       76.19289
H        100.45948       66.36314       76.63382
H         99.08145       64.77175       78.05831
H         98.42935       63.98814       76.57637
H        100.54815       66.13150       74.18310
H         99.22046       64.91241       74.22982
H         98.94488       66.61876       74.72064
H         97.20091       66.04206       75.95713
H         96.77627       65.47806       77.59101
H         97.88330       66.89669       77.40670
N        102.12273       63.34378       74.20397
C        102.92618       63.30521       72.98247
C        102.13639       63.93345       71.84630
O        101.05281       64.42737       72.08902
C        103.26029       61.83166       72.61772
C        104.19863       61.16365       73.62555
O        102.07374       61.09442       72.43985
H        101.36214       62.65852       74.27457
H        103.86696       63.88573       73.10150
H        103.81350       61.79247       71.65797
H        101.80339       60.69228       73.30583
H        103.73463       61.14731       74.62530
H        104.40772       60.11945       73.30528
H        105.15953       61.71683       73.67740
N        102.61748       63.95303       70.57241
C        101.87077       64.49330       69.43477
C        100.56055       63.74518       69.21214
O         99.52872       64.39560       69.12547
C        102.71988       64.46192       68.14171
C        103.93159       65.39573       68.24431
O        103.14733       63.15180       67.86722
H        103.55319       63.55911       70.40253
H        101.62567       65.56288       69.62905
H        102.07526       64.83800       67.31107
H        103.27514       63.08697       66.88526
H        104.61638       65.08812       69.06104
H        104.49633       65.38357       67.28910
H        103.59285       66.43663       68.43632
N        100.52387       62.38308       69.11636
C         99.29303       61.62129       68.88477
C         98.20656       61.99509       69.88354
O         97.09914       62.31071       69.47059
C         99.56379       60.08713       68.85841
C        100.12493       59.47847       70.16034
C        100.37644       57.96738       70.02344
C        100.92971       57.32144       71.31118
N        102.29618       57.75111       71.61706
H        101.40998       61.86980       69.22516
H         98.90850       61.87583       67.87130
H        100.28838       59.88413       68.03991
H         98.61327       59.56684       68.60516
H         99.39396       59.61573       70.97866
H        101.07233       59.98624       70.41136
H        101.07665       57.76460       69.18454
H         99.40435       57.48023       69.79148
H        100.94154       56.21871       71.16710
H        100.25798       57.54428       72.17044
H        102.62709       57.25491       72.47587
H        102.93577       57.51437       70.82460
H        102.33596       58.77293       71.80168
N         98.47634       62.02776       71.21356
C         97.50231       62.39075       72.23983
C         97.00063       63.81718       72.02845
O         95.79689       64.03062       72.04098
C         98.12441       62.18936       73.64493
C         98.48236       60.70290       73.87363
C         99.09618       60.42708       75.21187
O        100.13115       60.97388       75.54648
O         98.55826       59.49588       76.01417
H         99.44013       61.80928       71.50351
H         96.62564       61.70693       72.18916
H         97.39539       62.50879       74.42192
H         99.04089       62.80194       73.73878
H         99.22079       60.36554       73.12526
H         97.56588       60.08386       73.76178
N         97.87213       64.82836       71.76739
C         97.49648       66.20452       71.51420
H         96.40557       66.37296       71.61610
H         98.02964       66.86736       72.22809
H         97.80556       66.48525       70.48369
H         98.86197       64.60533       71.70128
Ca       100.81866       59.23498       77.99716
O        102.43566       58.63277       74.97454
H        103.31822       58.21836       75.14726
H        101.77932       57.92598       75.19150
O        103.45278       60.45342       76.97394
H        104.43856       60.51628       76.90601
H        103.14315       61.39209       77.00855

Ca 1.0



