%chk=holoCaM.loop4.water3.frame259.chk
%nprocshared=20
%mem=10GB
%nosave
#b3lyp/svp scf=(tight,noincore,xqc) Test 
#IOP(5/87=12) Density=Current Pop=(MK,readradii) iop(6/33=2) iop(6/42=6)

holoCaM.loop4.water3.frame259 

   -3  1 
C         35.45986       -3.71112       82.52072
C         34.21725       -3.84405       81.69544
O         34.13461       -4.77863       80.91307
H         35.95634       -2.74302       82.30981
H         35.19108       -3.76834       83.59649
H         36.16861       -4.53811       82.29380
N         33.19703       -2.94446       81.82769
C         31.92914       -3.07056       81.11270
C         31.01271       -1.87861       81.38918
O         30.69618       -1.62834       82.54397
C         31.20953       -4.36854       81.54788
C         29.91737       -4.54182       80.81930
O         28.76073       -4.62689       81.50321
O         29.91254       -4.59539       79.60194
H         33.32978       -2.15210       82.47480
H         32.14093       -3.11954       80.02067
H         31.01992       -4.34593       82.64260
H         31.82635       -5.26185       81.33050
N         30.51504       -1.13277       80.35684
C         29.58167       -0.01388       80.52509
C         28.23076       -0.24285       79.82866
O         27.34792        0.57801       80.03682
C         30.21801        1.32700       80.02848
C         30.69659        1.22958       78.55620
C         31.37380        1.73778       80.95578
C         31.09446        2.55881       77.91616
H         30.80545       -1.38349       79.40520
H         29.33064        0.10443       81.60188
H         29.43799        2.11730       80.09917
H         29.88771        0.80071       77.92627
H         31.58083        0.56987       78.51959
H         31.00631        1.82893       81.99954
H         32.19001        0.98456       80.92881
H         31.78813        2.72453       80.66779
H         30.22422        3.24680       77.89169
H         31.93766        3.03850       78.45064
H         31.42454        2.37040       76.87083
N         27.99492       -1.28304       78.97305
C         26.72674       -1.46415       78.24661
C         26.11006       -2.85160       78.40712
O         24.98445       -3.03045       77.96072
C         26.94422       -1.16872       76.74447
C         28.18429       -1.85300       76.23170
O         28.35282       -3.18401       76.36549
O         29.11058       -1.17218       75.82318
H         28.76550       -1.93012       78.76454
H         25.95848       -0.75336       78.62286
H         27.08874       -0.07167       76.62740
H         26.04897       -1.45051       76.14837
N         26.77417       -3.88723       78.98598
C         26.21777       -5.22105       79.12792
C         25.79870       -5.81295       77.80073
O         24.63433       -6.16105       77.66547
H         27.71984       -3.73852       79.33736
H         25.34230       -5.18010       79.81208
H         26.97900       -5.88684       79.59103
N         26.69403       -5.97553       76.78342
C         26.33918       -6.59682       75.50470
C         27.04280       -7.93604       75.30273
O         26.79089       -8.57903       74.29275
C         26.55231       -5.61880       74.32264
C         27.96270       -5.17109       74.04633
O         28.99365       -5.56506       74.81053
O         28.17339       -4.42562       73.10363
H         27.66652       -5.67182       76.93851
H         25.25509       -6.83905       75.49367
H         25.93728       -4.71039       74.50244
H         26.17500       -6.10706       73.39812
N         27.91528       -8.43447       76.22490
C         28.54652       -9.73818       76.13581
C         30.00535       -9.65960       75.73491
O         30.66746      -10.68349       75.79816
H         28.13564       -7.88759       77.06154
H         28.02685      -10.40117       75.41146
H         28.45739      -10.21973       77.13493
N         30.55532       -8.51210       75.23300
C         31.92891       -8.42541       74.74485
C         32.67469       -7.23662       75.34321
O         32.09812       -6.42984       76.05245
C         31.91841       -8.28291       73.20351
C         31.32590       -9.51345       72.50260
C         31.47968       -9.40762       71.00548
N         30.87896       -8.41443       70.30952
O         32.16044      -10.23200       70.41316
H         29.96197       -7.68777       75.11292
H         32.49509       -9.34425       75.00901
H         32.96004       -8.17571       72.83538
H         31.35724       -7.36664       72.91361
H         30.25176       -9.63300       72.75915
H         31.87385      -10.41631       72.85272
H         30.29528       -7.71198       70.78539
H         30.99725       -8.34949       69.28726
N         33.99163       -7.07254       75.02574
C         34.83432       -5.93948       75.39056
C         35.21443       -5.22726       74.10266
O         35.74356       -5.85721       73.19847
C         36.08449       -6.45192       76.17303
C         37.28117       -5.48358       76.12307
C         35.71759       -6.70279       77.64358
H         34.43420       -7.79154       74.43546
H         34.29546       -5.20654       76.03018
H         36.43533       -7.40166       75.71178
H         37.63969       -5.36525       75.07817
H         37.01473       -4.48670       76.52971
H         38.13258       -5.90211       76.70168
H         34.86053       -7.40112       77.73191
H         36.58227       -7.12863       78.19479
H         35.45340       -5.73934       78.13263
N         34.98614       -3.88732       73.97879
C         35.31557       -3.10986       72.79082
C         36.42570       -2.11021       73.10408
O         37.05093       -2.21399       74.14737
C         34.03998       -2.45869       72.18005
C         33.51343       -1.20998       72.85877
N         32.99142       -1.23449       74.10205
O         33.52896       -0.15394       72.24367
H         34.58703       -3.39034       74.78037
H         35.70372       -3.78195       71.99568
H         33.23360       -3.21819       72.09623
H         34.29008       -2.16823       71.13702
H         32.91571       -2.11091       74.62389
H         32.62291       -0.37280       74.53082
N         36.73818       -1.12979       72.21405
C         37.77997       -0.11912       72.40117
C         37.52317        0.75106       73.63264
O         38.44873        0.96842       74.40007
C         37.85939        0.71500       71.10106
C         39.04421        1.64014       70.96705
C         40.35707        1.14462       71.06827
C         38.84776        2.99560       70.65514
C         41.45056        1.98936       70.85772
C         39.94350        3.83581       70.43348
C         41.24925        3.33347       70.53015
O         42.31444        4.12683       70.29795
H         36.20283       -1.10332       71.33547
H         38.75273       -0.64172       72.52492
H         36.90254        1.26404       70.95564
H         37.96105       -0.00287       70.25728
H         40.54055        0.10197       71.29192
H         37.84748        3.39738       70.55262
H         42.45580        1.59310       70.93066
H         39.77585        4.87289       70.17188
H         42.21857        5.05424       70.03831
N         36.28195        1.25412       73.90141
C         35.95878        2.06642       75.08651
C         36.12622        1.31325       76.41619
O         35.98883        1.93697       77.45956
C         34.48503        2.54404       75.01657
C         34.19250        3.44619       73.80810
C         32.72689        3.77229       73.73613
O         32.12224        4.41862       74.75118
O         32.07533        3.44857       72.75540
H         35.53616        1.03950       73.22716
H         36.63018        2.95303       75.09872
H         34.22488        3.11407       75.93702
H         33.82900        1.64691       74.97498
H         34.48391        2.94357       72.86323
H         34.77744        4.38616       73.89580
N         36.35159       -0.02904       76.45616
C         36.39710       -0.84595       77.66754
C         37.73549       -1.56578       77.80006
O         37.87499       -2.36725       78.71381
C         35.22418       -1.85811       77.59307
C         33.89176       -1.09385       77.53398
C         32.66672       -1.90584       77.23889
O         31.61334       -1.31272       77.10066
O         32.66378       -3.23463       77.04184
H         36.41435       -0.53440       75.57396
H         36.26430       -0.22866       78.58382
H         35.21765       -2.53755       78.47408
H         35.35133       -2.47302       76.68045
H         33.93301       -0.34532       76.71854
H         33.74867       -0.55309       78.49507
N         38.77539       -1.31136       76.95107
C         40.06556       -1.96348       77.02845
H         40.85007       -1.20093       77.22115
H         40.10869       -2.72952       77.82911
H         40.28139       -2.45476       76.05619
H         38.67746       -0.60765       76.21294
Ca        30.50781       -3.83992       76.66953
O         29.98877       -6.90689       78.20251
H         29.33737       -7.07150       78.93026
H         30.51744       -7.74084       78.14831
O         32.43864       -5.63584       78.72778
H         33.27810       -5.17403       78.48997
H         32.70043       -6.58133       78.85301
O         30.60858       -2.98916       73.90770
H         30.22195       -2.14763       73.55866
H         30.75476       -3.55151       73.10731

Ca 1.0



