%chk=holoCaM-CaMKII.loop3.water2.frame258.chk
%nprocshared=20
%mem=10GB
%nosave
#b3lyp/svp scf=(tight,noincore,xqc) Test 
#IOP(5/87=12) Density=Current Pop=(MK,readradii) iop(6/33=2) iop(6/42=6)

holoCaM-CaMKII.loop3.water2.frame258 

   0  1 
C         87.13920       -2.92217       71.06037
C         86.32349       -1.97030       71.88240
O         85.12659       -2.17658       72.02161
H         87.94401       -3.35871       71.68884
H         86.50716       -3.74727       70.66781
H         87.59574       -2.38086       70.20587
N         86.92410       -0.89706       72.46761
C         86.22524        0.06475       73.31011
C         86.31329        1.45089       72.69788
O         87.31150        1.78060       72.07186
C         86.81671        0.00803       74.72944
C         86.08295        0.88169       75.70685
O         86.75573        1.77080       76.45624
O         84.88125        0.75579       75.86415
H         87.93772       -0.76491       72.32372
H         85.14919       -0.20924       73.39460
H         87.89384        0.28034       74.71215
H         86.73000       -1.03719       75.09475
N         85.25174        2.29570       72.79248
C         85.19453        3.59504       72.13379
C         86.26048        4.54917       72.66373
O         86.91350        5.19985       71.86057
C         83.76380        4.16799       72.25517
C         83.52627        5.38808       71.35277
C         82.03206        5.75611       71.31187
C         81.71753        6.89610       70.32767
N         82.33519        8.16170       70.72350
H         84.42603        1.97782       73.32444
H         85.35568        3.43393       71.04446
H         83.52023        4.41737       73.30469
H         83.06663        3.36859       71.91493
H         83.83989        5.13423       70.31678
H         84.13846        6.23764       71.71953
H         81.67025        6.02291       72.32832
H         81.46118        4.86487       70.96640
H         80.61339        7.03187       70.29573
H         82.05292        6.61669       69.30354
H         83.37638        8.09521       70.67958
H         82.02803        8.90937       70.06032
H         82.03139        8.42175       71.68974
N         86.50340        4.65993       74.00290
C         87.47221        5.59715       74.58827
C         88.65907        4.92160       75.27144
O         89.51808        5.64420       75.76008
C         86.73983        6.55702       75.55984
C         86.01986        5.88272       76.70668
O         86.13525        4.55578       76.90957
O         85.28513        6.54217       77.42213
H         85.96244        4.04810       74.62770
H         87.91795        6.22849       73.78830
H         85.97622        7.09779       74.96028
H         87.44673        7.31327       75.96661
N         88.81256        3.56628       75.32633
C         89.98078        2.93217       75.92792
C         90.15782        3.17723       77.42195
O         91.20309        2.79821       77.93124
H         88.12025        2.95930       74.87039
H         90.88254        3.31739       75.40318
H         89.94090        1.83356       75.76161
N         89.21729        3.80360       78.19159
C         89.44081        4.15302       79.59637
C         89.69073        2.96625       80.53248
O         90.04448        3.21765       81.67678
C         88.28030        5.01965       80.16265
C         86.92518        4.34498       80.20944
N         85.90912        4.91055       80.90027
O         86.73532        3.28959       79.63048
H         88.34126        4.10168       77.75330
H         90.35721        4.78303       79.62353
H         88.17703        5.95954       79.57833
H         88.55503        5.30416       81.20108
H         86.04619        5.79570       81.40884
H         84.98985        4.44584       80.95135
N         89.50717        1.66882       80.15475
C         89.72624        0.53382       81.04615
C         88.43706       -0.20545       81.35463
O         88.49742       -1.26507       81.95890
H         89.16528        1.45777       79.20598
H         90.18117        0.83638       82.01407
H         90.43588       -0.15684       80.54285
N         87.23241        0.31068       80.98519
C         85.94188       -0.32964       81.17967
C         85.27179       -0.49760       79.81935
O         85.83903       -0.09820       78.81307
C         85.05421        0.56875       82.07194
C         85.57461        0.75920       83.47348
C         85.13692       -0.08873       84.50508
C         86.44807        1.81648       83.77769
C         85.56596        0.11555       85.81903
C         86.87355        2.02151       85.09518
C         86.43060        1.17203       86.12084
O         86.82064        1.36465       87.39721
H         87.20735        1.22139       80.52661
H         86.05030       -1.32903       81.65431
H         84.03824        0.13247       82.15977
H         84.90694        1.56464       81.59834
H         84.45547       -0.90365       84.29351
H         86.78637        2.48997       82.99976
H         85.21653       -0.54244       86.60509
H         87.53879        2.84568       85.31966
H         87.40423        2.09264       87.65397
N         84.02206       -1.03508       79.73010
C         83.26652       -1.09620       78.48140
C         81.80980       -1.41451       78.78339
O         81.52823       -2.38935       79.46508
C         83.88967       -2.06140       77.42327
C         83.07931       -1.96179       76.10172
C         83.99393       -3.50846       77.93013
C         83.69402       -2.70707       74.92159
H         83.56321       -1.34272       80.59910
H         83.28805       -0.07938       78.03204
H         84.92144       -1.71270       77.20686
H         83.02179       -0.89551       75.80662
H         82.04284       -2.32962       76.25136
H         82.99123       -3.94492       78.11183
H         84.52073       -4.14378       77.18940
H         84.58493       -3.54330       78.86892
H         83.08170       -2.51260       74.01494
H         84.72490       -2.34549       74.73560
H         83.70863       -3.80040       75.09660
N         80.82799       -0.62292       78.26652
C         79.40664       -0.83180       78.51185
C         78.74780       -1.44061       77.28852
O         79.42550       -1.68243       76.30674
C         78.76668        0.50758       78.91317
O         78.89520        1.43558       77.86916
H         81.09607        0.13766       77.62526
H         79.25861       -1.55594       79.34190
H         79.28828        0.88407       79.82295
H         77.69054        0.36692       79.14817
H         78.66153        2.32179       78.24904
N         77.42606       -1.76957       77.30235
C         76.74854       -2.42878       76.18709
C         76.75269       -1.57774       74.93324
O         77.17388       -2.06353       73.89259
C         75.30390       -2.75945       76.56914
H         76.88822       -1.57714       78.16045
H         77.25578       -3.39712       75.97359
H         74.73358       -1.83682       76.80677
H         74.80270       -3.29008       75.73109
H         75.29632       -3.42592       77.45762
N         76.30210       -0.29177       74.96297
C         76.27149        0.58047       73.79139
C         77.63020        0.64976       73.12690
O         77.70570        0.48351       71.91737
C         75.80587        1.98615       74.18746
H         75.99059        0.09005       75.86993
H         75.53746        0.18542       73.05374
H         74.78925        1.93454       74.63307
H         76.49918        2.44150       74.92662
H         75.75656        2.63999       73.28990
N         78.75571        0.83003       73.87108
C         80.09607        0.84642       73.29408
C         80.36072       -0.43423       72.51227
O         80.68838       -0.34875       71.33664
C         81.16747        1.09670       74.38231
C         80.95525        2.47570       75.04061
C         82.12355        2.92480       75.86630
O         82.53341        2.27311       76.96809
O         82.72107        3.93591       75.53833
H         78.64723        0.92300       74.89197
H         80.16944        1.69433       72.57608
H         82.15977        1.09186       73.87993
H         81.15674        0.29658       75.15167
H         80.04120        2.48643       75.66630
H         80.82527        3.22616       74.22972
N         80.17197       -1.65645       73.07551
C         80.32003       -2.88983       72.33365
H         81.36644       -3.00542       71.98470
H         80.05700       -3.75418       72.98141
H         79.63125       -2.89083       71.46079
H         79.86688       -1.71695       74.04868
Ca        84.49138        3.18134       77.62945
O         82.66654        2.12375       80.10537
H         81.86420        2.30580       79.55554
H         82.41092        1.34526       80.66023
O         82.72556        5.19156       79.26661
H         83.63103        5.32955       78.89553
H         82.74330        5.67730       80.12836

Ca 1.0



