%chk=holoCaM.loop1.water2.frame332.chk
%nprocshared=20
%mem=10GB
%nosave
#b3lyp/svp scf=(tight,noincore,xqc) Test 
#IOP(5/87=12) Density=Current Pop=(MK,readradii) iop(6/33=2) iop(6/42=6)

holoCaM.loop1.water2.frame332 

   0  1 
C          5.85824       45.89954       -5.21369
C          5.60465       46.12052       -6.66977
O          6.07005       47.10600       -7.22555
H          6.50488       46.70007       -4.79928
H          4.88450       45.90609       -4.67987
H          6.34978       44.91534       -5.06403
N          4.86709       45.21366       -7.36024
C          4.53682       45.37802       -8.76246
C          3.54958       46.54225       -8.93039
O          2.42916       46.48485       -8.44584
C          4.02280       44.04371       -9.31505
C          3.51917       44.19774      -10.69667
O          4.29689       44.72499      -11.65992
O          2.35066       43.94597      -10.91602
H          4.54306       44.36860       -6.86391
H          5.47601       45.59182       -9.32437
H          3.19565       43.66263       -8.67835
H          4.84927       43.29887       -9.30652
N          3.97366       47.66436       -9.56750
C          3.24953       48.92045       -9.71898
C          2.15707       48.87049      -10.79017
O          1.16712       49.57903      -10.67834
C          4.27991       49.99802      -10.17424
C          3.76295       51.42949      -10.01485
C          3.80940       51.86732       -8.54361
C          3.11647       53.21538       -8.36472
N          3.36496       53.75086       -7.02893
H          4.94467       47.66171       -9.86519
H          2.84181       49.19840       -8.72754
H          4.54513       49.80615      -11.23932
H          5.22799       49.92222       -9.59416
H          2.74670       51.51892      -10.44670
H          4.42928       52.12027      -10.57772
H          4.88121       51.93967       -8.24910
H          3.31885       51.14169       -7.86328
H          2.02213       53.07451       -8.52172
H          3.49354       53.93891       -9.11861
H          3.00913       53.09461       -6.29662
H          4.39273       53.90029       -6.90012
H          2.87836       54.67095       -6.93787
N          2.38517       48.17699      -11.93849
C          1.57801       48.24483      -13.16413
C          0.87742       46.92869      -13.48453
O          0.26440       46.83097      -14.53850
C          2.43541       48.77786      -14.35861
C          3.73001       48.06054      -14.64598
O          4.47478       48.46965      -15.52039
O          4.08193       47.02373      -13.87828
H          3.21438       47.57882      -11.92958
H          0.75205       48.97973      -13.04836
H          2.70380       49.83094      -14.13114
H          1.82159       48.77340      -15.28427
N          0.81800       45.91812      -12.57754
C          0.00851       44.72432      -12.76019
C          0.46214       43.81883      -13.88323
O         -0.36305       43.43091      -14.69684
H          1.28248       46.03175      -11.66597
H         -1.05691       45.00913      -12.89795
H          0.05632       44.12527      -11.82633
N          1.74765       43.38029      -13.94058
C          2.21416       42.30410      -14.81015
C          2.83224       41.15705      -13.98301
O          3.24998       40.17649      -14.58304
C          3.19160       42.84517      -15.88013
C          4.24174       43.75066      -15.32779
O          5.00092       43.34546      -14.31395
O          4.39195       44.87428      -15.77704
H          2.43283       43.79990      -13.30117
H          1.36755       41.85365      -15.37356
H          2.62768       43.42767      -16.63883
H          3.67171       41.98904      -16.40274
N          2.87339       41.17456      -12.61223
C          3.40525       40.09517      -11.79017
C          4.92229       40.02882      -11.73291
O          5.42148       39.07557      -11.15161
H          2.44018       41.94462      -12.10361
H          2.97623       39.13106      -12.14140
H          3.07085       40.23880      -10.73941
N          5.72085       40.98216      -12.30113
C          7.18402       40.90496      -12.32883
C          7.84798       42.21220      -11.87209
O          7.15728       43.18674      -11.60732
C          7.67419       40.44213      -13.73120
C          6.91832       39.19965      -14.22237
O          7.59029       41.44441      -14.70265
H          5.26894       41.76213      -12.76811
H          7.50974       40.11466      -11.61880
H          8.74719       40.18028      -13.63494
H          6.69636       41.84803      -14.63458
H          5.85655       39.45185      -14.43765
H          7.37366       38.82296      -15.16054
H          6.94564       38.39646      -13.45726
N          9.20305       42.25824      -11.68791
C          9.93028       43.37105      -11.06846
C         11.10958       43.80687      -11.97168
O         11.94276       42.98031      -12.31284
C         10.37548       42.88278       -9.64637
C          9.15650       42.52316       -8.73284
C         11.31402       43.85814       -8.91869
C          8.34883       43.70785       -8.17969
H          9.74465       41.40374      -11.88646
H          9.26869       44.24703      -10.91048
H         10.94514       41.93792       -9.78773
H          9.53009       41.95715       -7.85307
H          8.46482       41.84188       -9.27012
H         10.85886       44.86077       -8.82959
H         11.53073       43.48492       -7.89363
H         12.27866       43.94748       -9.45787
H          8.97940       44.33368       -7.51308
H          7.92144       44.33844       -8.98406
H          7.51102       43.31885       -7.55980
N         11.24874       45.11804      -12.34829
C         12.32629       45.70022      -13.16017
C         13.25508       46.51335      -12.26770
O         13.05689       46.48929      -11.07449
C         11.74112       46.60803      -14.28326
C         10.88176       45.83333      -15.28422
O         11.04512       47.71421      -13.75245
H         10.57736       45.78281      -11.98003
H         12.94471       44.90310      -13.62454
H         12.58028       47.01525      -14.88125
H         10.12213       47.43237      -13.52731
H          9.95263       45.48202      -14.80037
H         10.61547       46.49333      -16.13812
H         11.44622       44.96042      -15.67300
N         14.30546       47.23228      -12.76201
C         15.25133       47.98612      -11.92524
C         14.56751       49.06167      -11.06983
O         14.80943       49.07652       -9.87067
C         16.40955       48.56665      -12.78025
C         17.25622       47.42920      -13.39032
O         15.90173       49.39886      -13.79101
H         14.45661       47.22466      -13.77967
H         15.73722       47.28235      -11.21136
H         17.07688       49.15910      -12.11164
H         16.68396       49.78753      -14.26475
H         16.65582       46.77862      -14.05863
H         18.09820       47.84525      -13.98225
H         17.68766       46.79807      -12.58313
N         13.67792       49.95897      -11.58932
C         12.94910       50.94293      -10.77029
C         12.19705       50.24614       -9.63079
O         12.28834       50.68623       -8.49387
C         11.97718       51.76326      -11.67045
C         11.19149       52.86579      -10.91607
C         10.13663       53.58255      -11.79176
C         10.72796       54.42401      -12.93726
N          9.66847       55.02482      -13.75349
H         13.47425       49.90652      -12.59927
H         13.66990       51.66534      -10.32598
H         11.25292       51.06847      -12.14722
H         12.57893       52.24682      -12.46960
H         11.89216       53.61264      -10.48152
H         10.63304       52.39259      -10.08101
H          9.55109       54.26902      -11.13873
H          9.43454       52.82541      -12.20222
H         11.36109       53.79603      -13.59723
H         11.35966       55.22992      -12.50231
H          9.15218       54.27746      -14.27304
H          8.99766       55.56429      -13.15939
H         10.09799       55.67623      -14.45019
N         11.44165       49.14349       -9.87726
C         10.65279       48.42933       -8.86625
C         11.51808       47.77942       -7.78144
O         11.12111       47.80053       -6.62542
C          9.75611       47.38120       -9.56390
C          8.75620       48.08343      -10.51210
C          7.90858       47.15168      -11.32447
O          8.39549       46.36227      -12.10866
O          6.58288       47.26249      -11.27730
H         11.42525       48.80044      -10.85014
H          9.95356       49.13516       -8.36757
H          9.18483       46.78677       -8.81715
H         10.41327       46.69381      -10.11529
H          9.28392       48.73315      -11.23561
H          8.08895       48.72922       -9.89916
N         12.70731       47.18873       -8.08051
C         13.57692       46.52159       -7.13344
H         14.56074       47.03736       -7.12272
H         13.16165       46.50996       -6.10626
H         13.74402       45.47180       -7.46251
H         13.04514       47.23379       -9.03295
Ca         5.66827       45.61205      -13.21301
O          7.76424       44.24881      -15.02887
H          8.53201       43.64170      -15.17160
H          7.47213       44.49068      -15.94280
O          7.38109       47.02895      -15.15861
H          6.45372       47.10593      -15.48879
H          7.91221       47.57206      -15.79049

Ca 1.0



