%chk=holoCaM-CaMKII.loop3.water2.frame486.chk
%nprocshared=20
%mem=10GB
%nosave
#b3lyp/svp scf=(tight,noincore,xqc) Test 
#IOP(5/87=12) Density=Current Pop=(MK,readradii) iop(6/33=2) iop(6/42=6)

holoCaM-CaMKII.loop3.water2.frame486 

   0  1 
C         79.81683       96.15946       79.79701
C         79.90186       96.38655       78.31537
O         79.80769       97.52593       77.88189
H         78.84101       96.52002       80.17967
H         79.92237       95.08240       80.04917
H         80.63789       96.71265       80.30082
N         80.12788       95.34088       77.47553
C         80.32497       95.50583       76.04247
C         79.02540       95.89800       75.35043
O         78.07157       95.13309       75.39107
C         80.91995       94.20322       75.47495
C         81.41956       94.30849       74.07158
O         81.30695       95.33387       73.42678
O         82.02294       93.24672       73.52321
H         80.24574       94.40198       77.88871
H         81.09060       96.29573       75.89641
H         80.17977       93.37682       75.54620
H         81.80634       93.93393       76.08963
N         78.91749       97.10047       74.71270
C         77.68258       97.57149       74.08146
C         77.29060       96.75094       72.84301
O         76.18689       96.93444       72.34994
C         77.84242       99.07847       73.73083
C         76.53361       99.78303       73.32373
C         76.69080      101.30537       73.14767
C         77.58252      101.69912       71.95848
N         77.62705      103.15400       71.80261
H         79.73100       97.73191       74.74114
H         76.87856       97.48296       74.84566
H         78.61295       99.18906       72.93806
H         78.20962       99.59617       74.64506
H         75.79400       99.62158       74.13799
H         76.12122       99.36039       72.38590
H         77.09087      101.75208       74.08459
H         75.67778      101.72890       72.97166
H         77.17359      101.24740       71.02762
H         78.61589      101.32189       72.10714
H         76.66506      103.52838       71.63190
H         78.02956      103.59716       72.66040
H         78.23018      103.39433       70.98295
N         78.14893       95.86135       72.25977
C         77.87617       95.20713       70.97901
C         78.53911       93.82985       70.83153
O         78.41117       93.24339       69.76512
C         78.27794       96.15342       69.82557
C         79.73300       96.53300       69.83563
O         80.44148       96.25600       68.88314
O         80.25176       97.22206       70.86936
H         79.10212       95.81185       72.62684
H         76.78229       95.03054       70.87344
H         77.67903       97.08695       69.89151
H         78.02634       95.66775       68.85647
N         79.21395       93.22195       71.85082
C         79.79253       91.88784       71.75294
C         81.01629       91.75207       70.85370
O         81.50715       90.63562       70.75811
H         79.24534       93.66761       72.77393
H         79.00432       91.17947       71.41622
H         80.10790       91.56594       72.76923
N         81.57380       92.79329       70.16223
C         82.71058       92.60530       69.25107
C         84.05213       92.30712       69.93421
O         85.02786       92.13589       69.21549
C         82.85832       93.79523       68.27401
C         83.25617       95.11961       68.87528
N         83.46931       96.17594       68.05725
O         83.39029       95.25115       70.08174
H         81.13407       93.72207       70.21695
H         82.47068       91.73878       68.59432
H         81.90039       93.92863       67.72610
H         83.63420       93.52535       67.52398
H         83.36510       96.07646       67.03643
H         83.74542       97.09159       68.43728
N         84.19526       92.20576       71.28648
C         85.44927       91.81450       71.91207
C         86.35818       92.96955       72.28585
O         87.44054       92.68526       72.77950
H         83.37086       92.26991       71.88676
H         85.98494       91.08556       71.26687
H         85.21927       91.27501       72.85789
N         85.98617       94.28072       72.17487
C         86.80963       95.35661       72.73038
C         85.97173       96.62688       73.01619
O         84.84801       96.22589       73.72914
C         88.06844       95.66182       71.88636
C         87.78231       96.23213       70.51626
C         88.12467       97.56567       70.22584
C         87.20618       95.44041       69.50847
C         87.89281       98.09649       68.95406
C         86.98359       95.97158       68.23348
C         87.32704       97.30232       67.95256
O         87.12470       97.82570       66.72654
H         85.04340       94.50388       71.82888
H         87.14892       95.01203       73.73442
H         88.70025       94.75595       71.77615
H         88.67684       96.39188       72.46292
H         88.56923       98.19908       70.98381
H         86.94677       94.40799       69.69949
H         88.15901       99.12557       68.74610
H         86.55031       95.34626       67.46318
H         86.75115       97.30692       66.00002
N         86.77207       97.61139       73.78494
C         86.09016       98.76097       74.43003
C         86.90634      100.01159       74.12015
O         88.11242       99.99940       74.32329
C         86.01701       98.60277       75.99691
C         85.20869       97.37606       76.48697
C         85.48717       99.87946       76.68908
C         83.69396       97.46139       76.26783
H         87.45623       97.16678       74.44062
H         85.06284       98.89271       74.03216
H         87.05722       98.45232       76.36299
H         85.36520       97.26412       77.58191
H         85.61344       96.45650       76.02033
H         86.15912      100.73935       76.50388
H         84.47414      100.14812       76.32227
H         85.45004       99.73702       77.79001
H         83.23412       96.52133       76.63355
H         83.24707       98.29826       76.84228
H         83.43354       97.60002       75.20581
N         86.28604      101.16169       73.72793
C         86.97849      102.43320       73.51716
C         86.62129      103.42010       74.62139
O         85.84388      103.08323       75.49636
C         86.58436      102.99682       72.14010
O         85.20273      103.24207       72.09876
H         85.26191      101.15680       73.64091
H         88.08013      102.29084       73.54616
H         86.86001      102.25521       71.35776
H         87.13117      103.94534       71.94544
H         84.99392      103.51996       71.16969
N         87.16723      104.66997       74.64575
C         86.78387      105.68882       75.62356
C         85.32236      106.06068       75.44847
O         84.58490      106.07865       76.42503
C         87.64479      106.94446       75.45371
H         87.86537      104.91363       73.92757
H         86.96527      105.31474       76.65681
H         87.52091      107.38353       74.44159
H         87.35666      107.70410       76.21317
H         88.71483      106.69028       75.60899
N         84.83443      106.33254       74.20231
C         83.44631      106.69437       73.90542
C         82.41393      105.62451       74.26822
O         81.23485      105.86793       74.05223
C         83.32185      106.98185       72.39976
H         85.50210      106.28824       73.41575
H         83.19863      107.62271       74.46376
H         83.56281      106.06587       71.81441
H         82.29343      107.30893       72.13814
H         84.02755      107.78609       72.10307
N         82.76723      104.42377       74.80197
C         81.83932      103.34080       75.08073
C         81.80684      103.08588       76.57938
O         80.73655      103.16985       77.16505
C         82.32585      102.14653       74.25663
C         81.41306      100.91840       74.22012
C         82.03341       99.86553       73.33453
O         81.45680       98.66951       73.17252
O         83.11116      100.05868       72.79203
H         83.75251      104.22128       74.97836
H         80.81201      103.59828       74.73999
H         83.32848      101.84564       74.62880
H         82.43358      102.49873       73.20523
H         80.41448      101.19407       73.82280
H         81.29679      100.50532       75.24540
N         82.95288      102.82775       77.27366
C         83.01348      102.67889       78.71372
H         83.67602      103.46888       79.13033
H         82.01808      102.77527       79.19418
H         83.44275      101.68791       78.96807
H         83.84407      102.76482       76.77092
Ca        83.07253       97.19174       72.71048
O         82.07555       99.18958       69.47716
H         81.28649       99.73536       69.72147
H         82.44521       99.63052       68.67146
O         84.78921       98.54983       70.59868
H         85.37901       99.21413       70.16278
H         85.14964       97.67173       70.31849

Ca 1.0



