%chk=holoCaM.loop4.water3.frame213.chk
%nprocshared=20
%mem=10GB
%nosave
#b3lyp/svp scf=(tight,noincore,xqc) Test 
#IOP(5/87=12) Density=Current Pop=(MK,readradii) iop(6/33=2) iop(6/42=6)

holoCaM.loop4.water3.frame213 

   -3  1 
C         23.82103       63.12166       75.88265
C         23.17461       61.80177       76.17158
O         22.03727       61.80008       76.61362
H         24.84237       62.99242       75.46933
H         23.20575       63.66693       75.13435
H         23.87648       63.72335       76.81289
N         23.81376       60.63116       75.88920
C         23.16983       59.33259       76.03120
C         24.11796       58.33035       76.68218
O         25.23758       58.19499       76.20751
C         22.75414       58.86626       74.62629
C         21.74147       57.75987       74.64902
O         21.33863       57.30012       73.59410
O         21.20154       57.33523       75.80880
H         24.74340       60.67048       75.44370
H         22.23798       59.43514       76.62761
H         23.65359       58.57377       74.04205
H         22.25718       59.70915       74.09781
N         23.72607       57.56077       77.74013
C         24.60500       56.59848       78.40988
C         24.19793       55.15748       78.08939
O         25.05064       54.28404       78.17158
C         24.59499       56.85824       79.95444
C         24.85273       58.34245       80.32498
C         25.56284       55.93981       80.72673
C         26.21460       58.89637       79.90557
H         22.76169       57.65395       78.08216
H         25.64419       56.71763       78.03327
H         23.56896       56.63115       80.32385
H         24.74736       58.46529       81.42583
H         24.06915       58.96706       79.85798
H         25.50462       56.15507       81.81595
H         25.29437       54.87252       80.59746
H         26.61026       56.08337       80.39035
H         27.03955       58.35003       80.40533
H         26.34268       58.84211       78.80598
H         26.27790       59.96339       80.20794
N         22.90698       54.82066       77.79942
C         22.44186       53.44197       77.63812
C         21.62107       53.20842       76.36406
O         21.17703       52.08458       76.17048
C         21.66081       53.04227       78.91101
C         20.67016       54.07734       79.36264
O         19.75827       54.42590       78.63905
O         20.81880       54.65700       80.56847
H         22.19043       55.55836       77.79493
H         23.29707       52.73379       77.57127
H         22.39662       52.92972       79.73628
H         21.16287       52.05859       78.77279
N         21.40102       54.18208       75.43382
C         20.66344       53.96148       74.19251
C         19.18140       53.64260       74.35182
O         18.55073       53.38768       73.33537
H         21.83381       55.09897       75.56603
H         21.15075       53.12829       73.63998
H         20.73860       54.86498       73.55482
N         18.55541       53.59835       75.56436
C         17.17674       53.13328       75.72641
C         16.11440       54.01694       75.07749
O         15.03053       53.50795       74.82744
C         16.83326       52.87697       77.21309
C         16.89358       54.08500       78.11384
O         17.24581       55.17480       77.69628
O         16.58891       53.94877       79.41750
H         19.09904       53.80921       76.40545
H         17.12312       52.14117       75.22366
H         17.54443       52.12386       77.61611
H         15.80998       52.44948       77.27363
N         16.31990       55.33891       74.81684
C         15.33102       56.18994       74.16116
C         14.80880       57.32171       75.03059
O         14.07427       58.14409       74.50204
H         17.21768       55.76149       75.08355
H         14.44862       55.60935       73.81596
H         15.81160       56.62569       73.25946
N         15.10474       57.42542       76.35937
C         14.62554       58.50646       77.21618
C         15.83420       59.22887       77.84989
O         16.49277       58.30769       78.67458
C         13.71073       57.95561       78.33817
C         12.43868       57.28628       77.81573
C         11.56001       56.86639       78.96923
N         11.99119       55.96343       79.88242
O         10.44565       57.35440       79.08384
H         15.68371       56.70338       76.79676
H         14.04571       59.25021       76.62651
H         13.39943       58.79979       78.99267
H         14.27822       57.22923       78.95921
H         12.69361       56.39770       77.20039
H         11.88735       58.01377       77.18015
H         12.92478       55.53466       79.80640
H         11.38804       55.69099       80.67283
N         15.37997       60.37520       78.65662
C         16.46428       61.23945       79.16656
C         16.50319       61.06586       80.67774
O         15.47009       61.19912       81.31850
C         16.27474       62.73543       78.75381
C         17.41720       63.60998       79.30503
C         16.24909       62.90374       77.22005
H         14.62019       60.91426       78.18306
H         17.43547       60.92767       78.73903
H         15.31372       63.11280       79.16746
H         18.39528       63.27630       78.89631
H         17.26580       64.67263       79.01690
H         17.45762       63.56665       80.41224
H         16.11955       63.97525       76.95474
H         17.19820       62.54258       76.76950
H         15.41040       62.35400       76.74995
N         17.67492       60.77359       81.31115
C         17.78805       60.46814       82.73765
C         18.38577       61.64647       83.49862
O         18.71658       62.65154       82.89261
C         18.65174       59.18422       82.85263
C         18.89197       58.65609       84.24402
N         17.86387       58.24097       85.01845
O         20.03511       58.59039       84.67250
H         18.53963       60.75980       80.75224
H         16.78107       60.28738       83.17210
H         19.63996       59.38816       82.38050
H         18.15401       58.38142       82.27549
H         16.89467       58.28048       84.67326
H         18.04069       57.88031       85.96807
N         18.50095       61.59894       84.85856
C         19.07131       62.67093       85.67515
C         20.56936       62.88213       85.42469
O         21.10347       63.86246       85.93173
C         18.84993       62.31720       87.16720
C         19.38190       63.35475       88.12236
C         18.81593       64.63814       88.18004
C         20.46568       63.04031       88.95904
C         19.33036       65.59321       89.06315
C         20.98267       63.99731       89.83295
C         20.41618       65.27823       89.88877
O         20.90765       66.21122       90.72827
H         18.12259       60.77854       85.34642
H         18.52479       63.60904       85.43241
H         19.35744       61.34399       87.35373
H         17.76642       62.16953       87.36984
H         17.97772       64.89712       87.54503
H         20.92098       62.05793       88.92517
H         18.88687       66.57994       89.10331
H         21.82487       63.74120       90.46308
H         21.66118       66.03212       91.30897
N         21.32210       62.02153       84.68214
C         22.75075       62.19422       84.43701
C         23.02655       62.48410       82.96605
O         24.17981       62.54154       82.57910
C         23.51398       60.94573       84.92331
C         23.43099       60.80030       86.45160
C         24.22164       59.61491       86.92394
O         25.26909       59.78956       87.75291
O         23.91711       58.48862       86.56543
H         20.87560       61.19551       84.25494
H         23.16412       63.06902       84.98773
H         24.58896       61.04880       84.65697
H         23.11293       60.03785       84.42000
H         22.37583       60.68649       86.77992
H         23.84781       61.71837       86.92276
N         21.99969       62.77664       82.11492
C         22.17029       63.16776       80.72685
C         21.72875       64.60991       80.56770
O         22.52684       65.42656       80.12338
C         21.29128       62.29524       79.83124
C         21.66330       60.80644       79.80870
C         20.67332       60.05767       78.95968
O         20.69426       58.72273       78.85768
O         19.77676       60.65722       78.39241
H         21.04436       62.78614       82.47089
H         23.22831       63.07559       80.39848
H         21.34271       62.69188       78.79697
H         20.23999       62.38036       80.18110
H         21.61788       60.39569       80.84090
H         22.68447       60.67528       79.40060
N         20.46574       64.99808       80.89928
C         19.99899       66.35475       80.73609
H         18.94547       66.43387       81.08109
H         20.62490       67.04616       81.33786
H         20.04257       66.64046       79.66400
H         19.79866       64.31193       81.27978
Ca        18.67724       58.09778       78.10266
O         18.14840       58.06227       74.91765
H         18.79174       57.45241       74.47896
H         17.55759       58.36540       74.18376
O         19.34803       60.59089       75.55698
H         18.41600       60.60298       75.22564
H         19.45572       61.47059       75.99579
O         18.65242       56.66507       80.48851
H         17.76136       56.25168       80.37111
H         18.97641       56.32351       81.35806

Ca 1.0



