%chk=holoCaM.loop3.water2.frame78.chk
%nprocshared=20
%mem=10GB
%nosave
#b3lyp/svp scf=(tight,noincore,xqc) Test 
#IOP(5/87=12) Density=Current Pop=(MK,readradii) iop(6/33=2) iop(6/42=6)

holoCaM.loop3.water2.frame78 

   0  1 
C         97.23079        1.20033      122.42474
C         96.83999        2.09891      123.55328
O         97.59725        2.21417      124.50670
H         98.21849        0.73198      122.62457
H         96.46832        0.40643      122.29476
H         97.30603        1.80130      121.49388
N         95.66582        2.78939      123.49861
C         95.26963        3.75455      124.50913
C         93.97046        3.32537      125.17468
O         92.96462        3.14070      124.50433
C         95.19520        5.14276      123.86061
C         95.02677        6.23615      124.86956
O         94.87306        5.95807      126.17343
O         95.05507        7.39465      124.50881
H         95.04781        2.65825      122.68274
H         96.05693        3.81940      125.28797
H         94.38168        5.18089      123.10484
H         96.16167        5.33250      123.34428
N         93.95805        3.11786      126.51981
C         92.83141        2.58479      127.28025
C         91.60809        3.49740      127.22289
O         90.51489        3.01363      126.96729
C         93.31341        2.28507      128.72549
C         92.44608        1.23313      129.43367
C         93.18145        0.61612      130.63971
C         92.47280       -0.66470      131.10805
N         93.22847       -1.33790      132.16442
H         94.83724        3.29102      127.02714
H         92.57540        1.60370      126.82385
H         93.46037        3.20669      129.33264
H         94.30990        1.80160      128.61311
H         92.28996        0.40530      128.70935
H         91.45318        1.64272      129.71849
H         93.28019        1.35478      131.46472
H         94.20386        0.31338      130.31941
H         92.39118       -1.36178      130.24276
H         91.44710       -0.42932      131.46517
H         94.20431       -1.53704      131.84219
H         93.25291       -0.74595      133.02500
H         92.76390       -2.24854      132.38581
N         91.75308        4.84536      127.36192
C         90.66679        5.82914      127.23221
C         90.74890        6.64651      125.94342
O         89.86445        7.46511      125.72621
C         90.64243        6.80524      128.44105
C         91.92780        7.59381      128.64526
O         91.98889        8.42978      129.53206
O         93.01018        7.35235      127.87074
H         92.71344        5.17027      127.50007
H         89.68572        5.30397      127.19092
H         90.42209        6.23750      129.36892
H         89.80416        7.52465      128.29057
N         91.74422        6.48051      125.02875
C         91.79907        7.23856      123.78760
C         92.10804        8.72495      123.94636
O         92.05865        9.40925      122.93409
H         92.44984        5.75115      125.17681
H         90.82809        7.11201      123.25963
H         92.58474        6.81087      123.12985
N         92.44016        9.31046      125.14118
C         92.68596       10.75313      125.27799
C         94.00268       11.24306      124.63355
O         94.31687       12.41444      124.78982
C         92.56770       11.22705      126.76401
C         93.73021       10.94001      127.67528
N         93.75987       11.41239      128.94136
O         94.67777       10.31589      127.26481
H         92.45348        8.73388      125.98817
H         91.83749       11.27208      124.78219
H         91.63861       10.81356      127.21410
H         92.47485       12.33285      126.74840
H         92.98371       11.97384      129.31573
H         94.58081       11.23456      129.54109
N         94.81870       10.42529      123.90281
C         96.05612       10.85383      123.26112
C         97.30520       10.64516      124.10886
O         98.38816       10.85317      123.58076
H         94.51269        9.47567      123.68800
H         95.97471       11.89775      122.88998
H         96.19579       10.21462      122.36036
N         97.24760       10.22125      125.40573
C         98.41032        9.88288      126.21816
C         98.23586        8.43953      126.77470
O         97.45275        8.48326      127.95099
C         98.60456       10.85463      127.41279
C         99.00399       12.26454      127.07662
C         98.20631       13.34018      127.50125
C        100.21232       12.52549      126.40988
C         98.61413       14.65576      127.26953
C        100.61802       13.84343      126.17826
C         99.82154       14.91340      126.61302
O        100.20995       16.18922      126.41632
H         96.33513       10.08019      125.82409
H         99.32399        9.91072      125.58566
H         99.41956       10.45684      128.05769
H         97.67503       10.86906      128.02329
H         97.27878       13.16315      128.03217
H        100.85139       11.71204      126.08995
H         97.99714       15.47543      127.61539
H        101.55781       14.03157      125.67475
H        101.04721       16.41146      125.98499
N         99.55885        7.90096      127.12681
C         99.51855        6.55501      127.72561
C        100.57499        6.46168      128.80156
O        101.63820        7.05238      128.66722
C         99.56904        5.37602      126.70187
C        100.91812        5.25248      125.94550
C         98.38068        5.47871      125.73609
C        100.98620        4.01821      125.03703
H        100.22853        7.94310      126.32614
H         98.55760        6.43111      128.26753
H         99.43831        4.44098      127.28935
H        101.73627        5.15247      126.68991
H        101.11480        6.15163      125.32642
H         97.43979        5.55488      126.31584
H         98.47529        6.36222      125.07169
H         98.30056        4.57945      125.10225
H        101.99503        3.94579      124.58013
H        100.79365        3.09316      125.62182
H        100.25504        4.08433      124.20550
N        100.32549        5.72456      129.91624
C        101.25414        5.57859      131.02672
C        101.80422        4.17104      131.02549
O        101.44288        3.39996      130.15547
C        100.51790        5.90536      132.34003
O         99.45438        5.00729      132.54260
H         99.43744        5.20537      129.96967
H        102.11675        6.27128      130.91911
H        100.14976        6.95780      132.28551
H        101.20493        5.84073      133.20900
H         98.64267        5.54106      132.74689
N        102.70373        3.75986      131.95686
C        103.21856        2.39364      131.99235
C        102.09037        1.39814      132.20508
O        102.04257        0.39619      131.50548
C        104.26397        2.24607      133.09682
H        103.02306        4.43641      132.66710
H        103.73650        2.16438      131.03304
H        103.82460        2.45727      134.09365
H        104.67594        1.21377      133.08788
H        105.10115        2.95284      132.90959
N        101.11058        1.65213      133.11958
C         99.96821        0.77323      133.35838
C         99.22804        0.45982      132.07185
O         99.02076       -0.70780      131.77237
C         98.99850        1.43477      134.34933
H        101.16333        2.53756      133.64755
H        100.32571       -0.17777      133.81134
H         98.59952        2.38778      133.93724
H         98.14379        0.75769      134.56258
H         99.51770        1.65698      135.30525
N         98.81802        1.46679      131.25456
C         98.09073        1.25298      130.00557
C         98.90982        0.37969      129.06449
O         98.43031       -0.67111      128.66299
C         97.74075        2.60994      129.34901
C         96.82168        3.46178      130.25254
C         96.51595        4.79884      129.64662
O         96.85945        5.92717      130.29656
O         95.93685        4.87516      128.57827
H         99.05757        2.42752      131.53739
H         97.13038        0.73333      130.22449
H         97.21809        2.42592      128.38402
H         98.67707        3.16514      129.13667
H         97.29918        3.64899      131.23450
H         95.87060        2.91865      130.43497
N        100.17430        0.73843      128.71197
C        101.05345       -0.05759      127.88189
H        101.95773       -0.32861      128.46927
H        100.57231       -0.99154      127.52713
H        101.37163        0.54164      127.00341
H        100.55435        1.61304      129.07330
Ca        95.21871        7.92790      127.96087
O         96.52466        9.01587      130.60125
H         96.51806        9.99526      130.45914
H         97.48201        8.76691      130.55267
O         93.89293        6.54780      130.82688
H         93.48074        7.16963      131.47799
H         93.20277        5.85437      130.67283

Ca 1.0



