%chk=holoCaM-CaMKII.loop1.water2.frame282.chk
%nprocshared=20
%mem=10GB
%nosave
#b3lyp/svp scf=(tight,noincore,xqc) Test 
#IOP(5/87=12) Density=Current Pop=(MK,readradii) iop(6/33=2) iop(6/42=6)

holoCaM-CaMKII.loop1.water2.frame282 

   0  1 
C         48.95264       30.59511       68.51985
C         49.80403       31.50921       67.68583
O         50.13732       31.15292       66.57210
H         47.99962       30.38918       67.98817
H         49.48544       29.63823       68.69516
H         48.71121       31.05094       69.50358
N         50.22637       32.70084       68.17638
C         51.02339       33.66621       67.42409
C         52.48589       33.44156       67.77299
O         53.12273       34.30268       68.36064
C         50.43061       35.06190       67.73597
C         51.11570       36.29268       67.20798
O         51.27875       36.55446       65.89807
O         51.45737       37.14993       68.00659
H         49.99691       32.92573       69.15705
H         50.93511       33.50500       66.32915
H         50.38132       35.17337       68.84154
H         49.38989       35.08201       67.35480
N         53.07050       32.24701       67.43940
C         54.45093       31.88711       67.75855
C         55.47854       32.60708       66.88536
O         56.66039       32.47603       67.17258
C         54.67544       30.36386       67.60893
C         53.76288       29.52386       68.52102
C         54.09801       28.03069       68.37926
C         53.24134       27.11807       69.27315
N         51.82479       27.14219       68.90341
H         52.49088       31.54035       66.96954
H         54.63327       32.14809       68.82457
H         55.73070       30.13583       67.87832
H         54.51275       30.06520       66.54894
H         52.70360       29.69730       68.24574
H         53.91183       29.83118       69.57919
H         55.16210       27.88360       68.66777
H         53.97978       27.71499       67.31970
H         53.35961       27.40603       70.34123
H         53.61945       26.07809       69.15619
H         51.40639       28.07800       69.10022
H         51.71105       26.90341       67.89135
H         51.31372       26.43096       69.47450
N         55.11801       33.38325       65.82131
C         56.07524       34.16922       65.03136
C         55.99472       35.64966       65.40827
O         56.85455       36.40929       64.98575
C         55.92979       33.90013       63.50434
C         54.57137       34.24513       62.94786
O         53.65836       34.76324       63.77979
O         54.30193       34.03767       61.77627
H         54.11745       33.47139       65.61441
H         57.10951       33.86981       65.30703
H         56.11218       32.81882       63.32304
H         56.70272       34.47756       62.95146
N         55.04644       36.10781       66.27813
C         55.07046       37.41571       66.90155
C         54.92949       38.56856       65.94951
O         55.80087       39.42630       65.93941
H         54.30559       35.48044       66.60514
H         56.01150       37.51405       67.48440
H         54.22662       37.47894       67.62396
N         53.81769       38.69558       65.17563
C         53.53742       39.88240       64.37334
C         52.28759       40.61976       64.86094
O         52.01275       41.68729       64.33188
C         53.49077       39.53209       62.86957
C         52.41727       38.57027       62.44276
O         51.53850       38.06410       63.32136
O         52.34464       38.24040       61.27030
H         53.12898       37.93490       65.19694
H         54.36750       40.61266       64.48694
H         54.47070       39.08763       62.59166
H         53.36049       40.46949       62.28717
N         51.49895       40.13751       65.87139
C         50.35455       40.85177       66.42020
C         49.03613       40.17193       66.11811
O         48.02280       40.64582       66.61465
H         51.70446       39.22720       66.30044
H         50.28595       41.88645       66.02104
H         50.49260       40.92769       67.52030
N         48.94862       39.12302       65.24984
C         47.68232       38.55926       64.79735
C         47.72901       37.04128       64.71240
O         48.77748       36.43514       64.87370
C         47.30452       39.16352       63.41760
C         46.85414       40.62685       63.52326
O         48.36196       39.03510       62.50005
H         49.80140       38.79294       64.78680
H         46.87460       38.80057       65.52417
H         46.42934       38.62132       63.00264
H         49.05917       39.70507       62.73349
H         45.96300       40.69624       64.18345
H         47.65752       41.27451       63.92979
H         46.57265       41.00220       62.51673
N         46.57006       36.36435       64.49290
C         46.43995       34.91442       64.42364
C         45.78053       34.56335       63.09787
O         44.72644       35.10818       62.79568
C         45.62144       34.43017       65.66026
C         46.45744       34.69196       66.94575
C         45.25772       32.93578       65.54961
C         45.72006       34.43027       68.25764
H         45.69889       36.91374       64.41635
H         47.42999       34.40886       64.47332
H         44.67342       35.01153       65.70714
H         46.77216       35.75608       66.97862
H         47.37196       34.05997       66.91878
H         44.64017       32.74916       64.64724
H         46.17259       32.30879       65.49642
H         44.64541       32.60921       66.41374
H         44.82525       35.08338       68.32823
H         45.42056       33.36910       68.35948
H         46.39851       34.66914       69.10529
N         46.32917       33.62042       62.27735
C         45.73165       33.21188       61.00556
C         45.00638       31.89798       61.17832
O         45.08973       31.30974       62.24314
C         46.81109       33.07281       59.89718
C         47.55841       34.37916       59.63426
O         47.71802       32.03812       60.19884
H         47.15617       33.10976       62.61343
H         44.97096       33.95882       60.68878
H         46.31219       32.79774       58.94372
H         48.37257       32.37096       60.86564
H         48.31135       34.22572       58.83107
H         46.85315       35.17645       59.32253
H         48.08304       34.68894       60.55655
N         44.23907       31.38177       60.17805
C         43.55301       30.10008       60.32619
C         44.55146       28.94786       60.38745
O         44.21390       27.90711       60.93373
C         42.50570       29.87457       59.21515
C         41.39770       30.93913       59.28489
O         43.13207       29.90340       57.95846
H         44.12810       31.92558       59.30881
H         42.99974       30.12320       61.29368
H         42.03810       28.87629       59.37987
H         42.45821       29.60311       57.29433
H         40.89908       30.90781       60.27771
H         41.80337       31.95977       59.12441
H         40.63082       30.74269       58.50700
N         45.80512       29.07008       59.85928
C         46.84574       28.05535       60.00142
C         47.19512       27.90389       61.46469
O         47.13439       26.80359       61.99493
C         48.10608       28.48685       59.20124
C         49.36031       27.61701       59.42115
C         49.17822       26.14981       59.00839
C         50.47405       25.32936       59.15716
N         50.91025       25.20771       60.55104
H         46.04259       29.93573       59.35270
H         46.48882       27.08516       59.59185
H         48.39268       29.51893       59.49734
H         47.85211       28.51147       58.11931
H         49.65441       27.68313       60.48863
H         50.18485       28.05559       58.81745
H         48.87719       26.12392       57.93889
H         48.37728       25.67134       59.61041
H         51.28463       25.78871       58.54870
H         50.28417       24.30953       58.75610
H         50.15344       24.77630       61.12975
H         51.75373       24.59078       60.58852
H         51.17662       26.13688       60.94584
N         47.59556       28.99519       62.16631
C         48.03270       28.95563       63.55122
C         46.93815       28.41768       64.45419
O         47.15546       27.39551       65.08993
C         48.48579       30.36117       63.98427
C         49.77502       30.77847       63.24114
C         50.25676       32.14277       63.63124
O         51.48956       32.29303       64.15134
O         49.55865       33.12426       63.43909
H         47.60123       29.89969       61.67394
H         48.90953       28.27372       63.63878
H         48.67094       30.32753       65.06428
H         47.67379       31.09854       63.80567
H         49.61513       30.78123       62.14477
H         50.57609       30.04177       63.46686
N         45.73376       29.04141       64.54668
C         44.63307       28.55188       65.34955
H         43.76614       28.34548       64.68674
H         44.88640       27.61737       65.89229
H         44.34408       29.32619       66.08973
H         45.57744       29.90103       64.01503
Ca        51.51196       35.28122       64.06543
O         51.42618       34.48777       60.71898
H         51.81248       33.61903       60.99377
H         51.28237       34.39835       59.74350
O         49.43897       36.60203       61.13943
H         49.91748       37.37985       61.50821
H         49.30621       36.82796       60.18499

Ca 1.0



