%chk=holoCaM-CaMKII.loop4.water2.frame73.chk
%nprocshared=20
%mem=10GB
%nosave
#b3lyp/svp scf=(tight,noincore,xqc) Test 
#IOP(5/87=12) Density=Current Pop=(MK,readradii) iop(6/33=2) iop(6/42=6)

holoCaM-CaMKII.loop4.water2.frame73 

   -3  1 
C         89.23491       42.81822       71.61742
C         90.72554       42.77205       71.46444
O         91.33688       43.77733       71.13748
H         88.84053       43.83193       71.39986
H         88.77281       42.09197       70.91467
H         88.96016       42.53573       72.65611
N         91.37546       41.60476       71.70005
C         92.81682       41.42462       71.57391
C         93.24430       41.61340       70.12306
O         92.65680       40.98115       69.25532
C         93.15735       40.00656       72.06419
C         94.61368       39.70709       72.17494
O         95.46751       40.54142       71.93500
O         94.97393       38.48928       72.59320
H         90.80141       40.79906       71.99812
H         93.33476       42.14823       72.24375
H         92.68841       39.25741       71.39071
H         92.73911       39.87233       73.08593
N         94.26581       42.45820       69.78884
C         94.65973       42.74558       68.40648
C         96.04693       42.16093       68.08543
O         96.46364       42.24091       66.94122
C         94.59808       44.29540       68.13899
C         93.32473       44.92854       68.76982
C         94.65603       44.61093       66.62573
C         93.22963       46.44947       68.61303
H         94.77766       42.92419       70.54842
H         93.93748       42.25285       67.71939
H         95.47176       44.76922       68.63954
H         93.34826       44.74793       69.86394
H         92.40824       44.45924       68.35222
H         95.57621       44.23791       66.14498
H         93.77715       44.17063       66.10689
H         94.66772       45.70240       66.44005
H         92.35214       46.82337       69.18175
H         94.14308       46.93903       69.01238
H         93.08379       46.74245       67.55434
N         96.80581       41.52608       69.03071
C         98.12849       40.95934       68.76606
C         98.14832       39.44643       68.94001
O         99.19656       38.85313       68.71676
C         99.14370       41.55229       69.76593
C         99.16254       43.05136       69.76463
O         98.84723       43.72315       70.88871
O         99.47071       43.66685       68.75768
H         96.45435       41.44153       69.98703
H         98.45052       41.18685       67.72649
H        100.16606       41.17650       69.54141
H         98.87093       41.21044       70.78921
N         97.06277       38.75370       69.38698
C         97.10415       37.34009       69.71457
C         98.11424       37.07862       70.81278
O         98.95838       36.20839       70.66063
H         96.17272       39.23972       69.56537
H         97.32504       36.73186       68.81061
H         96.10203       37.04191       70.09414
N         98.08194       37.83095       71.94777
C         98.97326       37.66272       73.09265
C         98.18172       37.35979       74.37028
O         98.75624       37.37139       75.44980
C         99.88987       38.90137       73.22341
C         99.21584       40.22357       73.48417
O         99.89999       41.23153       73.55542
O         97.88347       40.32458       73.63814
H         97.38247       38.58186       71.99805
H         99.66271       36.80492       72.93207
H        100.46390       38.99505       72.27492
H        100.62029       38.72074       74.04175
N         96.86960       36.99428       74.30207
C         96.04059       36.59471       75.42578
C         95.57647       37.69449       76.36467
O         94.75242       37.36235       77.20552
H         96.44270       36.86955       73.37758
H         96.53784       35.78185       75.99606
H         95.10474       36.16916       74.99735
N         96.01245       38.99209       76.32021
C         95.47091       40.02265       77.21617
C         94.95867       41.25228       76.42934
O         94.60298       40.90565       75.12256
C         96.54120       40.48932       78.21552
C         97.01033       39.35066       79.13084
C         98.05242       39.83448       80.10449
N         99.24596       40.29987       79.66639
O         97.82049       39.79774       81.30360
H         96.74474       39.26352       75.65182
H         94.61376       39.61355       77.79521
H         96.12358       41.29769       78.85556
H         97.40099       40.90358       77.65308
H         97.44223       38.52006       78.53312
H         96.13090       38.96134       79.69058
H         99.46634       40.32684       78.66021
H         99.95724       40.62750       80.33642
N         93.81973       41.89547       77.11633
C         93.43865       43.21762       76.57140
C         94.03464       44.34946       77.41321
O         93.64283       44.51860       78.55983
C         91.88663       43.30806       76.50832
C         91.39560       44.67044       75.98872
C         91.31543       42.19760       75.60756
H         93.93762       41.93000       78.15565
H         93.80084       43.31765       75.52773
H         91.48004       43.16580       77.53455
H         91.73276       45.49259       76.65154
H         91.76573       44.85948       74.95898
H         90.28424       44.69374       75.97801
H         90.20532       42.24167       75.59725
H         91.68432       42.31118       74.56523
H         91.60755       41.19292       75.97861
N         95.00322       45.15609       76.89401
C         95.60797       46.28337       77.61005
C         94.64645       47.47511       77.62815
O         93.59203       47.38651       77.01494
C         96.94328       46.63189       76.89571
C         97.81010       47.65917       77.58040
N         98.25664       47.46458       78.84245
O         98.14350       48.66594       76.97490
H         95.35688       44.92622       75.95700
H         95.84467       45.95621       78.64545
H         96.72349       46.96043       75.85412
H         97.55086       45.70247       76.83688
H         98.00722       46.61527       79.36809
H         98.86010       48.16778       79.29445
N         94.93340       48.62932       78.30521
C         94.08061       49.81753       78.21500
C         94.14668       50.41669       76.81298
O         93.17423       51.01287       76.37241
C         94.48957       50.88920       79.25104
C         93.52749       52.06236       79.26901
C         92.17593       51.86719       79.60973
C         93.96758       53.35910       78.94968
C         91.28351       52.94301       79.62324
C         93.07158       54.43513       78.96488
C         91.72545       54.22908       79.30098
O         90.85011       55.25506       79.31900
H         95.77789       48.66983       78.89301
H         93.03959       49.50299       78.44770
H         95.52463       51.23055       79.02623
H         94.49508       50.43839       80.26688
H         91.80912       50.88200       79.86660
H         95.00175       53.53967       78.68549
H         90.24600       52.77586       79.88534
H         93.42363       55.42819       78.71480
H         91.11212       56.16149       79.10352
N         95.28863       50.31934       76.06966
C         95.42483       50.83484       74.70827
C         94.49198       50.11674       73.73695
O         94.27695       50.62100       72.64408
C         96.89577       50.66122       74.25304
C         97.21904       51.25904       72.87576
C         98.67200       51.07122       72.54690
O         99.46214       52.14214       72.34364
O         99.14166       49.94786       72.45198
H         96.10196       49.86430       76.49936
H         95.17167       51.91802       74.73440
H         97.14223       49.57459       74.24823
H         97.54919       51.16073       75.00254
H         96.97699       52.34345       72.88399
H         96.63029       50.76403       72.07755
N         93.92323       48.92197       74.06039
C         93.06243       48.15659       73.17188
C         91.64702       48.04996       73.73032
O         90.80568       47.47031       73.05775
C         93.67030       46.75421       72.99348
C         95.09191       46.79118       72.39691
C         95.65141       45.40519       72.40118
O         95.95376       44.84182       71.36472
O         95.77049       44.77735       73.58130
H         94.13404       48.49917       74.96969
H         92.98290       48.64809       72.17794
H         93.02022       46.13488       72.33578
H         93.70415       46.27058       73.99724
H         95.76341       47.42475       73.01452
H         95.05572       47.20192       71.36563
N         91.30097       48.59341       74.93557
C         89.96275       48.56010       75.48526
H         89.23863       48.05794       74.81222
H         89.97892       48.02694       76.45880
H         89.61876       49.60260       75.65702
H         92.00295       49.06562       75.51245
Ca        95.63752       42.57223       73.96238
O         98.58696       42.67460       75.98606
H         99.38960       43.14745       75.65224
H         98.86905       41.72735       76.03938
O         98.68795       45.06661       73.87240
H         99.41744       45.16493       73.21093
H         98.87199       45.76326       74.55105

Ca 1.0



