%chk=holoCaM-CaMKII.loop3.water2.frame272.chk
%nprocshared=20
%mem=10GB
%nosave
#b3lyp/svp scf=(tight,noincore,xqc) Test 
#IOP(5/87=12) Density=Current Pop=(MK,readradii) iop(6/33=2) iop(6/42=6)

holoCaM-CaMKII.loop3.water2.frame272 

   0  1 
C         61.26381       22.15475       61.58557
C         61.60833       20.69841       61.64072
O         62.58783       20.33910       62.27464
H         60.25159       22.30243       62.01889
H         61.99105       22.75540       62.17222
H         61.26595       22.50490       60.53306
N         60.83655       19.79746       60.97677
C         61.03017       18.35699       61.04063
C         61.56049       17.87910       59.69572
O         60.97324       18.19312       58.66986
C         59.68855       17.69922       61.45091
C         59.78370       16.21544       61.66641
O         58.79539       15.56471       61.96314
O         60.96465       15.60726       61.51899
H         60.06138       20.15213       60.39486
H         61.77695       18.10128       61.82661
H         58.92905       17.90060       60.66649
H         59.34625       18.15100       62.40691
N         62.70496       17.13535       59.64184
C         63.39859       16.76079       58.40984
C         62.46704       16.07323       57.42575
O         62.41978       16.50434       56.28191
C         64.64823       15.90642       58.74569
C         65.69710       15.86803       57.61761
C         66.95636       15.10520       58.07377
C         68.12143       15.27137       57.08500
N         69.30336       14.53495       57.53859
H         63.12974       16.85120       60.53641
H         63.76813       17.70331       57.94589
H         64.34738       14.88377       59.05981
H         65.16631       16.39526       59.59893
H         65.98649       16.91859       57.39198
H         65.28532       15.40763       56.69379
H         66.70732       14.02898       58.19971
H         67.29735       15.50603       59.05400
H         68.37871       16.35244       57.00937
H         67.82660       14.91003       56.07597
H         69.10245       13.50881       57.55213
H         70.09632       14.71544       56.88089
H         69.58561       14.85016       58.49565
N         61.63174       15.06449       57.81912
C         60.65293       14.45449       56.91891
C         59.22229       14.89303       57.23126
O         58.51102       15.19233       56.28132
C         60.82746       12.92067       56.77150
C         60.64066       12.06188       57.98792
O         60.36522       12.59166       59.18013
O         60.74955       10.85045       57.89117
H         61.65353       14.76626       58.80492
H         60.83070       14.81206       55.87999
H         61.85100       12.72427       56.38720
H         60.09884       12.56814       56.00894
N         58.72518       14.98417       58.50268
C         57.34597       15.38348       58.78640
C         56.53161       14.28360       59.44660
O         55.33130       14.46496       59.59310
H         59.33867       14.77782       59.30076
H         56.81347       15.64231       57.84700
H         57.33890       16.29150       59.42645
N         57.09868       13.10804       59.84368
C         56.35183       11.95745       60.34871
C         55.57802       12.21208       61.64060
O         54.84907       11.31974       62.05329
C         57.30641       10.73980       60.49045
C         58.32722       10.85682       61.60532
N         58.46679        9.86532       62.51466
O         59.05618       11.83289       61.67279
H         58.10340       12.99059       59.71162
H         55.61296       11.69474       59.56029
H         57.85582       10.62292       59.53022
H         56.70926        9.81508       60.63696
H         57.88416        9.01703       62.46908
H         59.17693        9.93499       63.25903
N         55.68465       13.38065       62.33810
C         54.96417       13.66358       63.56893
C         55.90703       13.80522       64.74633
O         55.44393       14.14185       65.82486
H         56.32687       14.11578       62.01304
H         54.23318       12.86241       63.81774
H         54.39482       14.60670       63.42745
N         57.23007       13.48618       64.62935
C         58.16745       13.45468       65.74184
C         59.45536       14.15413       65.34936
O         60.01775       13.80789       64.32050
C         58.47869       11.97770       66.04797
C         57.23285       11.23035       66.46592
C         56.59994       11.51873       67.68679
C         56.68729       10.24176       65.63198
C         55.44551       10.82429       68.06472
C         55.53049        9.55595       66.00482
C         54.90608        9.84293       67.22555
O         53.79111        9.18413       67.59996
H         57.58624       13.13323       63.73131
H         57.74069       13.91534       66.65952
H         59.24035       11.89108       66.85307
H         58.90695       11.51791       65.13054
H         57.00345       12.27502       68.34825
H         57.14665       10.00781       64.68684
H         54.96942       11.04968       69.01044
H         55.12186        8.80277       65.34279
H         53.38907        8.49963       67.04582
N         60.02220       15.09206       66.16368
C         61.32718       15.69070       65.88708
C         62.33594       15.16286       66.89787
O         62.06776       15.18451       68.08988
C         61.27183       17.24548       65.83645
C         62.61120       17.77641       65.25254
C         60.94721       17.88203       67.20161
C         62.66714       19.29217       65.10211
H         59.54955       15.32604       67.04807
H         61.66602       15.38077       64.87537
H         60.46375       17.52955       65.12466
H         62.74634       17.33737       64.23785
H         63.47142       17.46092       65.88004
H         61.76123       17.69434       67.93204
H         60.82258       18.97919       67.10219
H         59.99269       17.49215       67.60566
H         61.80039       19.64581       64.50818
H         62.66388       19.79415       66.08955
H         63.61240       19.57055       64.58938
N         63.53215       14.67457       66.46743
C         64.54915       14.09548       67.33562
C         65.78422       14.98270       67.36385
O         65.77076       16.04070       66.76295
C         64.86926       12.67494       66.83571
O         65.41475       12.70397       65.54131
H         63.75152       14.73427       65.46774
H         64.17857       14.01564       68.38012
H         63.94441       12.05112       66.86453
H         65.59356       12.17154       67.50736
H         64.67550       12.51370       64.90693
N         66.88449       14.62048       68.08174
C         68.08974       15.44235       68.19684
C         68.76069       15.69301       66.85691
O         69.03049       16.84336       66.53941
C         69.09372       14.76323       69.13365
H         66.85307       13.72712       68.59390
H         67.82295       16.41957       68.65869
H         69.40131       13.77321       68.73423
H         69.99624       15.40079       69.25143
H         68.63546       14.61866       70.13490
N         69.06338       14.65878       66.02295
C         69.75379       14.81426       64.74167
C         69.07327       15.83855       63.86009
O         69.72068       16.74659       63.35893
C         69.77430       13.46670       63.99987
H         68.76801       13.71186       66.30983
H         70.80414       15.13301       64.91744
H         70.29713       12.69831       64.60588
H         68.73931       13.10788       63.80134
H         70.29894       13.56730       63.02548
N         67.74481       15.72794       63.63693
C         66.97240       16.59858       62.76179
C         67.01362       18.03239       63.26980
O         67.28976       18.93622       62.49369
C         65.52916       16.06890       62.67767
C         65.49209       14.60085       62.16245
C         64.11026       14.05569       62.19781
O         63.61546       13.31034       61.20057
O         63.41765       14.23467       63.18357
H         67.26314       14.97355       64.14413
H         67.38313       16.56208       61.72769
H         64.93223       16.72115       62.00681
H         65.07672       16.11690       63.69360
H         66.07082       13.92900       62.81884
H         65.92233       14.50908       61.14270
N         66.80269       18.30150       64.58624
C         66.87485       19.63154       65.14925
H         67.87008       20.08059       64.94520
H         66.07635       20.27118       64.72182
H         66.73766       19.57869       66.25212
H         66.62602       17.52357       65.22522
Ca        61.42033       13.43552       61.41939
O         61.88699       11.38658       64.13716
H         62.72773       10.90377       63.93644
H         61.49562       10.89539       64.90243
O         62.22801       10.26706       61.26087
H         62.05082       10.78074       60.43402
H         61.52840        9.56679       61.27303

Ca 1.0



