%chk=holoCaM-CaMKII.loop4.water1.frame453.chk
%nprocshared=20
%mem=10GB
%nosave
#b3lyp/svp scf=(tight,noincore,xqc) Test 
#IOP(5/87=12) Density=Current Pop=(MK,readradii) iop(6/33=2) iop(6/42=6)

holoCaM-CaMKII.loop4.water1.frame453 

   -3  1 
C         65.25668       63.62834       30.26980
C         64.57958       64.93590       29.99784
O         63.38950       65.05805       30.24160
H         66.07063       63.78750       31.00994
H         64.53833       62.89213       30.68825
H         65.68990       63.22709       29.33112
N         65.30597       65.98564       29.53313
C         64.74687       67.31791       29.35945
C         63.80193       67.38312       28.15362
O         64.19960       66.94039       27.08492
C         65.89104       68.33785       29.19465
C         65.39657       69.72891       29.42999
O         66.14794       70.67324       29.28975
O         64.14212       69.91970       29.87428
H         66.31887       65.84547       29.38911
H         64.22411       67.57163       30.30773
H         66.34713       68.23910       28.18515
H         66.67946       68.16054       29.95837
N         62.55196       67.93967       28.24396
C         61.56971       67.92216       27.15130
C         61.25910       69.31738       26.57266
O         60.65933       69.35263       25.50687
C         60.30603       67.14078       27.65433
C         60.71353       65.66756       27.94132
C         59.11577       67.19104       26.67714
C         59.64246       64.82164       28.63086
H         62.26104       68.35012       29.13972
H         61.99317       67.37001       26.28323
H         59.96616       67.61881       28.59986
H         61.58810       65.65457       28.61742
H         61.01136       65.17333       26.99029
H         58.76511       68.23370       26.53839
H         59.38931       66.75264       25.69504
H         58.24002       66.65010       27.08686
H         59.36509       65.27045       29.60574
H         58.73734       64.70482       28.00452
H         60.05181       63.80610       28.81940
N         61.65502       70.49287       27.14860
C         61.45441       71.80612       26.50858
C         62.78122       72.53256       26.25134
O         62.74643       73.63829       25.72910
C         60.40625       72.65790       27.27123
C         60.71370       72.83293       28.71982
O         61.85867       73.41085       29.10059
O         59.98270       72.33303       29.55971
H         62.12464       70.46502       28.06255
H         61.01143       71.68528       25.49626
H         59.42774       72.13449       27.18959
H         60.29272       73.65370       26.79106
N         63.98742       71.93756       26.48890
C         65.26608       72.50386       26.08392
C         65.67056       73.74227       26.84678
O         65.99075       74.74616       26.22655
H         64.02101       70.98942       26.88769
H         65.26104       72.69940       24.98832
H         66.05605       71.74568       26.27827
N         65.74149       73.71139       28.20463
C         66.29466       74.78313       29.02784
C         67.45714       74.26880       29.89221
O         67.90532       74.99472       30.76839
C         65.17075       75.44808       29.85711
C         64.50000       74.58414       30.88246
O         63.48899       75.08474       31.61597
O         64.86518       73.44218       31.07489
H         65.40445       72.86631       28.68054
H         66.69947       75.60032       28.39112
H         64.39384       75.81014       29.14958
H         65.58813       76.32999       30.38803
N         68.03630       73.04999       29.65947
C         69.17209       72.52696       30.40731
C         68.84004       71.96628       31.77953
O         69.76797       71.49439       32.42436
H         67.73599       72.49534       28.84785
H         69.96145       73.30644       30.47888
H         69.60105       71.67549       29.83468
N         67.57688       71.95559       32.29827
C         67.24867       71.39273       33.60750
C         66.16233       70.33459       33.52659
O         65.58314       70.12373       32.46783
C         66.91070       72.52796       34.60997
C         65.79362       73.52896       34.24065
C         64.37773       72.99357       34.29414
N         63.48371       73.51082       35.17025
O         64.01616       72.11816       33.52599
H         66.81752       72.36934       31.75244
H         68.13882       70.87230       34.02577
H         67.84068       73.13235       34.69398
H         66.70746       72.11056       35.61931
H         65.99986       73.97667       33.25016
H         65.86801       74.35884       34.97549
H         63.74921       74.26500       35.81997
H         62.51455       73.16152       35.19544
N         65.85703       69.60682       34.63492
C         64.80918       68.59615       34.71382
C         63.89558       68.94657       35.87811
O         64.38838       69.06868       36.99387
C         65.45258       67.18894       34.89659
C         64.40570       66.09322       35.17101
C         66.25002       66.79943       33.63884
H         66.41930       69.76573       35.48716
H         64.20940       68.56035       33.77923
H         66.14492       67.21506       35.76732
H         63.85624       66.29912       36.11242
H         63.67957       66.01689       34.33574
H         64.90563       65.10853       35.29683
H         67.04818       67.53972       33.42656
H         66.73170       65.80780       33.77731
H         65.57694       66.73961       32.75432
N         62.54528       69.05321       35.70618
C         61.61165       69.24339       36.81770
C         60.91411       67.92821       37.10533
O         61.26817       66.94418       36.48002
C         60.62607       70.41829       36.58089
C         59.43527       70.13308       35.68830
N         59.56515       69.88093       34.36982
O         58.31519       70.16081       36.17769
H         62.16503       68.86981       34.76835
H         62.17890       69.51083       37.73608
H         61.17650       71.31480       36.22644
H         60.20584       70.68015       37.57696
H         60.48282       69.88641       33.91413
H         58.72766       69.70796       33.79404
N         59.95136       67.80402       38.05589
C         59.31429       66.52392       38.36334
C         58.53855       65.96559       37.16583
O         58.73264       64.80594       36.83138
C         58.40649       66.66308       39.59992
C         57.94156       65.31859       40.11332
C         58.87827       64.36696       40.56304
C         56.57471       65.00654       40.16459
C         58.45411       63.12701       41.04565
C         56.15225       63.76462       40.65113
C         57.09178       62.82055       41.09250
O         56.69859       61.62081       41.56529
H         59.68774       68.63927       38.60196
H         60.12209       65.80908       38.63483
H         57.55023       67.32853       39.35432
H         58.98257       67.14185       40.42243
H         59.93945       64.58158       40.54629
H         55.83611       65.72345       39.82983
H         59.18652       62.40528       41.38670
H         55.09468       63.53796       40.68600
H         55.76575       61.36962       41.61966
N         57.67976       66.75473       36.44835
C         56.91976       66.30818       35.26515
C         57.79564       65.75238       34.13094
O         57.25104       65.16674       33.20543
C         56.05107       67.49569       34.75977
C         55.24426       67.23876       33.47417
C         54.40258       68.43206       33.12282
O         54.58848       69.02880       32.07355
O         53.43096       68.84414       33.95864
H         57.56526       67.72855       36.76496
H         56.25203       65.47892       35.58780
H         56.71545       68.36604       34.56487
H         55.35049       67.77064       35.57924
H         54.58631       66.35346       33.59853
H         55.94014       67.06052       32.62727
N         59.14811       65.84887       34.15081
C         60.03437       65.30512       33.13211
C         60.71058       64.05807       33.67808
O         60.67877       63.03879       33.00290
C         61.02478       66.40181       32.69657
C         60.28502       67.52035       31.93863
C         61.16526       68.67921       31.56697
O         60.69168       69.61668       30.94526
O         62.46273       68.71149       31.92162
H         59.59445       66.33233       34.93117
H         59.47596       64.98131       32.22455
H         61.79249       65.97410       32.02057
H         61.53631       66.81200       33.59371
H         59.45259       67.90728       32.55635
H         59.85120       67.09647       31.01042
N         61.26128       64.03329       34.92356
C         61.81780       62.84708       35.53926
H         62.85996       63.05190       35.85809
H         61.21463       62.59024       36.43764
H         61.81384       61.97235       34.85721
H         61.24201       64.87512       35.49949
Ca        63.07409       71.84213       30.06304
O         60.71979       72.33347       32.62245
H         59.84505       72.52016       32.19865
H         60.53143       72.36696       33.59349

Ca 1.0



