%chk=holoCaM-CaMKII.loop1.water2.frame399.chk
%nprocshared=20
%mem=10GB
%nosave
#b3lyp/svp scf=(tight,noincore,xqc) Test 
#IOP(5/87=12) Density=Current Pop=(MK,readradii) iop(6/33=2) iop(6/42=6)

holoCaM-CaMKII.loop1.water2.frame399 

   0  1 
C         44.69553       82.80439       53.20785
C         44.65343       81.67270       52.22507
O         44.06989       81.83632       51.16683
H         45.20367       83.67606       52.74508
H         43.66092       83.08853       53.49108
H         45.24930       82.52173       54.12805
N         45.27651       80.49546       52.50249
C         45.30100       79.35737       51.58809
C         43.89364       78.79717       51.39869
O         43.38457       78.11764       52.27893
C         46.31041       78.32996       52.14510
C         46.40335       77.00835       51.45195
O         46.70728       76.88468       50.14676
O         46.26865       76.00022       52.12145
H         45.78761       80.42587       53.39654
H         45.68498       79.71191       50.60772
H         46.05223       78.12349       53.20872
H         47.31711       78.79675       52.13047
N         43.17869       79.13334       50.28469
C         41.79505       78.73199       50.04634
C         41.72803       77.29129       49.59200
O         41.11036       76.49067       50.28141
C         41.11742       79.68022       49.01410
C         40.99925       81.13492       49.52668
C         39.98807       81.27795       50.68082
C         40.03396       82.67119       51.31723
N         39.06550       82.76676       52.41116
H         43.61188       79.79013       49.62438
H         41.22852       78.80195       50.99367
H         40.09846       79.31719       48.75531
H         41.72072       79.68312       48.07987
H         40.66385       81.79437       48.69605
H         41.99877       81.48848       49.84108
H         40.20810       80.56587       51.49549
H         38.96722       81.06418       50.29325
H         39.81887       83.45434       50.55821
H         41.05640       82.84388       51.72415
H         39.15625       83.69961       52.87364
H         38.09382       82.66262       52.03863
H         39.24739       82.02203       53.12387
N         42.32357       76.88191       48.43342
C         42.23779       75.49978       47.96105
C         42.93353       74.48882       48.87845
O         42.79512       73.30013       48.62535
C         42.70236       75.37508       46.49210
C         44.13221       75.75476       46.21836
O         44.95114       76.17834       47.20023
O         44.55307       75.68673       45.07490
H         42.80238       77.58587       47.85142
H         41.15900       75.22454       47.94736
H         42.05094       76.02761       45.86936
H         42.54565       74.32729       46.15386
N         43.63596       74.86303       49.98843
C         44.13696       73.90812       50.96398
C         45.23189       73.01946       50.42495
O         45.07467       71.80798       50.47167
H         43.76648       75.85962       50.20859
H         43.28875       73.29862       51.34476
H         44.53363       74.45446       51.83701
N         46.38153       73.55389       49.91954
C         47.49602       72.75119       49.42016
C         48.81515       72.99413       50.16435
O         49.74573       72.23910       49.92086
C         47.63603       72.92925       47.89066
C         47.94019       74.32346       47.39735
O         48.10380       75.35560       48.24136
O         48.03132       74.52277       46.19703
H         46.44779       74.57221       49.86763
H         47.26732       71.67599       49.58532
H         46.67541       72.61507       47.42735
H         48.43265       72.24905       47.52073
N         48.98158       73.99577       51.08016
C         50.19415       74.17641       51.87490
C         50.96051       75.43761       51.52680
O         51.89396       75.76294       52.24841
H         48.22270       74.66536       51.24854
H         50.89747       73.32346       51.76604
H         49.88821       74.21707       52.94274
N         50.67611       76.16088       50.40902
C         51.40232       77.35778       49.99115
C         50.44602       78.52196       49.79166
O         49.24322       78.33932       49.90156
C         52.19017       77.05853       48.68180
C         53.41807       76.19727       48.97908
O         51.40098       76.38213       47.73360
H         49.92743       75.82894       49.78972
H         52.12168       77.68331       50.77562
H         52.57451       78.00076       48.23380
H         50.50840       76.80735       47.71823
H         53.12833       75.22851       49.43663
H         53.97211       75.99644       48.03703
H         54.09979       76.73813       49.67049
N         50.93079       79.77506       49.55739
C         50.09309       80.96403       49.40111
C         50.56431       81.74401       48.17609
O         51.75741       82.00401       48.07710
C         50.18245       81.85569       50.67820
C         49.86877       81.02603       51.95360
C         49.20023       83.04222       50.55492
C         50.02768       81.80855       53.25849
H         51.95525       79.90636       49.56617
H         49.02182       80.67932       49.29097
H         51.22056       82.24568       50.76904
H         50.57940       80.17543       52.01941
H         48.83793       80.61625       51.89798
H         48.15242       82.67342       50.49105
H         49.28122       83.73333       51.41586
H         49.41589       83.64542       49.65357
H         51.05694       82.21891       53.33607
H         49.29166       82.63312       53.33445
H         49.85285       81.12727       54.11779
N         49.68549       82.22167       47.24708
C         50.10085       83.02883       46.09753
C         49.84812       84.50849       46.35863
O         49.30525       84.85995       47.39650
C         49.36658       82.57430       44.80752
C         49.59727       81.09982       44.48646
O         47.98806       82.80420       44.94247
H         48.67971       82.07967       47.40433
H         51.19657       82.92269       45.93582
H         49.76550       83.16958       43.95342
H         47.63213       83.01608       44.03977
H         49.07251       80.84094       43.54105
H         50.68019       80.89463       44.35875
H         49.19027       80.46375       45.29803
N         50.23968       85.43927       45.44229
C         50.01952       86.87779       45.59281
C         48.53946       87.18385       45.71142
O         48.15301       87.88508       46.63458
C         50.62118       87.67095       44.40579
C         52.14861       87.57553       44.36480
O         50.09164       87.21155       43.18634
H         50.71363       85.10371       44.59100
H         50.52624       87.23987       46.51686
H         50.36867       88.74830       44.56442
H         49.83972       88.00750       42.64997
H         52.48748       86.52973       44.21705
H         52.53655       88.19184       43.52655
H         52.58031       87.96286       45.31242
N         47.65195       86.67030       44.81584
C         46.21226       86.88559       44.89527
C         45.66640       86.41321       46.23093
O         44.96792       87.17977       46.88048
C         45.51513       86.18047       43.70766
C         43.98494       86.32549       43.74800
C         43.33545       85.81894       42.45392
C         41.80442       85.86561       42.56101
N         41.17390       85.45727       41.30625
H         48.01653       86.07133       44.05936
H         45.99591       87.97303       44.79413
H         45.77091       85.09755       43.68628
H         45.90202       86.64836       42.77495
H         43.70993       87.39470       43.88016
H         43.59595       85.74506       44.61337
H         43.65070       84.77236       42.25070
H         43.67085       86.46292       41.61052
H         41.47296       86.89718       42.81408
H         41.47761       85.18225       43.37676
H         41.42411       86.13091       40.54611
H         41.48121       84.49365       41.04066
H         40.13544       85.46004       41.42975
N         45.94404       85.16809       46.70744
C         45.36797       84.66140       47.95214
C         45.74613       85.49398       49.17080
O         45.05096       85.40101       50.17354
C         45.74965       83.19079       48.18961
C         45.23753       82.28456       47.05686
C         45.53265       80.85579       47.35501
O         44.62032       80.05417       47.45963
O         46.79364       80.44299       47.54445
H         46.56194       84.56566       46.14743
H         44.26153       84.71843       47.84644
H         45.29663       82.85238       49.14533
H         46.85321       83.10798       48.28972
H         45.70718       82.53826       46.08926
H         44.13796       82.41193       46.96088
N         46.82002       86.32925       49.16757
C         47.13771       87.18755       50.28730
H         48.06193       87.76493       50.07010
H         46.30658       87.90700       50.45095
H         47.29665       86.58508       51.20579
H         47.43697       86.36104       48.35003
Ca        46.86672       78.50015       48.61608
O         46.20678       78.25339       44.80595
H         46.43140       77.42285       44.31547
H         46.37277       78.97741       44.15159
O         49.28578       77.83810       45.81905
H         48.83347       78.06219       44.96993
H         50.19808       77.57263       45.54113

Ca 1.0



