%chk=holoCaM.loop1.water2.frame347.chk
%nprocshared=20
%mem=10GB
%nosave
#b3lyp/svp scf=(tight,noincore,xqc) Test 
#IOP(5/87=12) Density=Current Pop=(MK,readradii) iop(6/33=2) iop(6/42=6)

holoCaM.loop1.water2.frame347 

   0  1 
C        115.15818       11.77547      100.77740
C        115.65298       11.60715      102.17719
O        116.83530       11.80926      102.42014
H        114.36689       12.55299      100.75440
H        115.98852       12.08426      100.10697
H        114.74371       10.81117      100.41782
N        114.79128       11.24292      103.16762
C        115.23625       11.06971      104.54028
C        116.21967        9.90901      104.58740
O        115.86459        8.81512      104.17068
C        114.03255       10.87649      105.48877
C        114.40839       11.13132      106.92056
O        115.67881       11.43797      107.23421
O        113.54187       11.18809      107.77524
H        113.79427       11.11070      102.93569
H        115.72503       12.02620      104.83769
H        113.55428        9.88250      105.35582
H        113.28197       11.66118      105.24571
N        117.49732       10.10482      105.01666
C        118.58109        9.14682      104.84250
C        119.01933        8.52042      106.16416
O        119.72297        7.52149      106.11359
C        119.72611        9.91643      104.13985
C        120.95294        9.13241      103.66191
C        120.64683        8.20409      102.47972
C        121.95121        7.63601      101.89992
N        121.69106        6.79327      100.73422
H        117.74436       11.01739      105.40095
H        118.22165        8.31612      104.19755
H        120.08092       10.69925      104.84733
H        119.30844       10.44504      103.25314
H        121.42981        8.57910      104.49717
H        121.67991        9.89556      103.30408
H        120.13964        8.78900      101.68032
H        119.97488        7.38039      102.80164
H        122.48256        7.04402      102.67711
H        122.61125        8.47841      101.59019
H        121.20671        7.34721       99.99041
H        122.60234        6.44833      100.35426
H        121.10246        5.97374      101.00716
N        118.62420        9.01682      107.37741
C        118.89505        8.34729      108.65295
C        117.59959        8.01822      109.40828
O        117.68011        7.44628      110.48603
C        119.89744        9.15986      109.50422
C        119.44365       10.51521      109.96605
O        118.33420       10.93898      109.69846
O        120.27971       11.26929      110.70419
H        118.09591        9.89933      107.40665
H        119.39843        7.37285      108.46921
H        120.82817        9.29061      108.91032
H        120.15607        8.56755      110.40894
N        116.37197        8.28433      108.87057
C        115.10290        7.88146      109.45354
C        114.69459        8.66321      110.69088
O        115.27413        8.47152      111.74804
H        116.30715        8.71549      107.93889
H        115.09485        6.79054      109.66101
H        114.32960        8.04635      108.67172
N        113.64331        9.53397      110.60344
C        113.01832       10.27608      111.70819
C        111.83858       11.18447      111.26023
O        111.40757       11.98789      112.07708
C        114.04975       11.08559      112.53986
C        114.85991       12.04413      111.73743
O        114.31499       12.92630      111.10224
O        116.20349       11.95537      111.74859
H        113.27464        9.65321      109.66247
H        112.58385        9.54953      112.42908
H        114.74561       10.39989      113.06094
H        113.52453       11.64714      113.34277
N        111.20366       11.08534      110.04518
C        110.06914       11.91870      109.67217
C        110.42190       13.35251      109.32021
O        109.49288       14.10506      109.05975
H        111.43336       10.34987      109.37080
H        109.31769       11.89307      110.49168
H        109.58444       11.49043      108.76747
N        111.70682       13.81592      109.27295
C        112.03361       15.20915      108.96409
C        113.28614       15.35780      108.10553
O        113.99745       14.39755      107.84298
C        112.16862       16.04558      110.26818
C        110.81385       16.41279      110.88371
O        112.98544       15.39701      111.20878
H        112.47813       13.17461      109.49520
H        111.22774       15.65090      108.33572
H        112.63493       17.02577      110.03602
H        112.45392       14.66257      111.61631
H        110.22166       17.00329      110.15120
H        110.23936       15.51326      111.18019
H        110.97885       17.04387      111.78284
N        113.56593       16.59457      107.60122
C        114.69194       16.95303      106.74879
C        115.46402       18.07567      107.44197
O        114.86105       19.06703      107.83122
C        114.14556       17.37275      105.34656
C        113.49443       16.13422      104.66421
C        115.25568       17.96256      104.45326
C        112.82183       16.42545      103.32147
H        112.90074       17.35601      107.80956
H        115.37268       16.09032      106.58526
H        113.37651       18.16436      105.48893
H        112.70820       15.71817      105.32862
H        114.26429       15.34474      104.50979
H        114.84432       18.31785      103.48726
H        115.71449       18.85168      104.93051
H        116.04223       17.20977      104.24964
H        113.55185       16.76834      102.56135
H        112.35998       15.49128      102.93575
H        112.02590       17.18856      103.44793
N        116.81750       17.99855      107.58254
C        117.64986       19.02687      108.19945
C        118.31874       19.84805      107.11859
O        118.09946       19.59382      105.94808
C        118.74598       18.38051      109.10551
C        118.17335       17.58640      110.27872
O        119.63777       17.59386      108.34771
H        117.30047       17.21630      107.13695
H        117.03051       19.72144      108.80781
H        119.35214       19.18171      109.57474
H        119.26189       16.68174      108.24834
H        119.00705       17.18799      110.89719
H        117.53843       18.23844      110.91331
H        117.57884       16.73740      109.89964
N        119.18082       20.84409      107.44573
C        119.98316       21.56721      106.46349
C        120.85604       20.59670      105.67657
O        120.91536       20.70315      104.45993
C        120.87023       22.62690      107.16489
C        120.01299       23.74433      107.77867
O        121.65816       22.01719      108.15739
H        119.31471       21.05658      108.44462
H        119.32452       22.10640      105.74499
H        121.53098       23.08774      106.39439
H        122.33102       22.68592      108.44842
H        119.31687       23.35196      108.54834
H        120.66644       24.50537      108.25400
H        119.41948       24.24518      106.98401
N        121.54067       19.60758      106.31765
C        122.44183       18.67173      105.64624
C        121.72061       17.90275      104.54836
O        122.15165       17.92320      103.40442
C        123.05985       17.64899      106.64469
C        123.68037       18.23424      107.93051
C        124.68414       19.36401      107.68337
C        125.22962       19.89342      109.01705
N        126.12195       21.03080      108.80330
H        121.40666       19.52981      107.33300
H        123.27652       19.25258      105.19567
H        123.83888       17.07481      106.09622
H        122.28759       16.92332      106.98234
H        124.17313       17.40462      108.48385
H        122.87657       18.61752      108.59243
H        124.17054       20.20063      107.16375
H        125.51932       18.99876      107.04792
H        125.77824       19.08154      109.54454
H        124.38263       20.21952      109.66263
H        125.59803       21.81280      108.34635
H        126.48001       21.36205      109.72810
H        126.93043       20.74777      108.20398
N        120.59586       17.20450      104.85360
C        119.81566       16.40039      103.91395
C        119.32410       17.23313      102.74052
O        119.51411       16.81818      101.60587
C        118.63356       15.75122      104.67202
C        119.15233       14.70627      105.68236
C        118.07571       14.15540      106.56721
O        117.44723       14.93073      107.46271
O        117.81893       12.97214      106.53959
H        120.26853       17.26568      105.82843
H        120.43922       15.57437      103.50350
H        117.94802       15.23648      103.96277
H        118.06378       16.55119      105.18139
H        119.92585       15.12950      106.35257
H        119.61994       13.87809      105.10407
N        118.71321       18.43092      102.93844
C        118.22052       19.28034      101.87368
H        117.14557       19.49608      102.04834
H        118.78087       20.23956      101.87821
H        118.32761       18.81200      100.87348
H        118.61823       18.77769      103.89277
Ca       116.22653       12.60587      109.05718
O        118.64440       14.04808      110.45711
H        119.58129       13.87610      110.18874
H        118.71688       14.63253      111.25275
O        115.81662       15.17059      110.56357
H        115.95570       15.10097      111.54143
H        115.34593       16.03177      110.43698

Ca 1.0



