%chk=holoCaM.loop2.water2.frame335.chk
%nprocshared=20
%mem=10GB
%nosave
#b3lyp/svp scf=(tight,noincore,xqc) Test 
#IOP(5/87=12) Density=Current Pop=(MK,readradii) iop(6/33=2) iop(6/42=6)

holoCaM.loop2.water2.frame335 

   -2  1 
C         11.63341       24.86121       -5.89351
C         10.67197       25.30266       -6.96197
O          9.53549       24.86351       -6.95388
H         12.62557       25.34742       -6.01293
H         11.23214       25.14710       -4.89725
H         11.77028       23.76185       -5.93095
N         11.05978       26.20357       -7.90162
C         10.16643       26.78940       -8.89668
C          9.60749       25.77794       -9.89189
O         10.37980       25.07594      -10.52916
C         10.92769       27.89023       -9.65339
C         10.04271       28.58046      -10.63823
O         10.36259       28.62703      -11.81449
O          8.88149       29.12679      -10.22907
H         12.03329       26.54432       -7.86081
H          9.32723       27.28529       -8.35982
H         11.81230       27.46191      -10.17443
H         11.28906       28.64363       -8.92367
N          8.25953       25.72478      -10.12533
C          7.62979       24.86465      -11.12246
C          6.84519       25.63889      -12.19157
O          6.40793       24.99037      -13.13270
C          6.67658       23.89306      -10.41450
H          7.65080       26.33779       -9.57595
H          8.40747       24.26971      -11.64805
H          6.21178       23.19381      -11.14276
H          7.22686       23.29482       -9.65829
H          5.86570       24.45454       -9.89927
N          6.56816       26.98116      -12.10727
C          5.73219       27.68844      -13.09124
C          6.36467       28.96000      -13.67063
O          5.75523       29.55762      -14.54743
C          4.34332       27.98797      -12.48129
C          4.32643       28.89247      -11.27373
O          5.35188       29.36158      -10.80816
O          3.14743       29.18412      -10.69324
H          6.88277       27.50090      -11.27981
H          5.54115       27.02438      -13.96275
H          3.87981       27.02094      -12.18870
H          3.69878       28.44451      -13.26409
N          7.57750       29.42558      -13.26191
C          8.24892       30.58166      -13.84672
C          7.60529       31.93757      -13.58988
O          8.13352       32.91212      -14.10726
H          8.08893       28.89637      -12.55493
H          8.33717       30.42050      -14.94268
H          9.27932       30.63995      -13.43294
N          6.49147       32.10543      -12.81869
C          5.85117       33.40948      -12.61021
C          6.66017       34.41087      -11.76431
O          6.15548       35.50220      -11.53651
C          4.42500       33.22702      -12.03925
C          4.31813       32.61311      -10.66824
N          3.09461       32.46913      -10.11197
O          5.31018       32.24683      -10.05738
H          6.04218       31.27329      -12.41731
H          5.69108       33.87353      -13.60938
H          3.84335       32.59091      -12.74190
H          3.93098       34.22239      -12.00343
H          2.24894       32.76990      -10.61686
H          2.98302       32.06683       -9.17563
N          7.91874       34.15006      -11.30343
C          8.72707       35.12304      -10.57526
C          8.44681       35.18990       -9.08301
O          9.12277       35.95607       -8.41126
H          8.37569       33.27137      -11.56112
H          8.63429       36.12543      -11.04875
H          9.79272       34.82187      -10.66659
N          7.49988       34.41373       -8.48567
C          7.23058       34.40023       -7.04748
C          7.37581       32.98394       -6.49178
O          7.66578       32.06577       -7.24280
C          5.79164       34.93602       -6.79770
C          5.68702       36.42464       -7.13471
O          4.85041       34.22929       -7.56561
H          6.92887       33.79411       -9.07136
H          7.94499       35.04662       -6.49088
H          5.52009       34.86402       -5.72123
H          4.75687       33.32998       -7.15782
H          6.38907       37.00765       -6.49976
H          5.92193       36.61254       -8.20280
H          4.65598       36.78418       -6.92835
N          7.11769       32.73942       -5.17453
C          7.00276       31.41037       -4.58019
C          5.52609       31.15092       -4.34508
O          4.84098       31.98093       -3.76271
C          7.87783       31.27448       -3.28257
C          9.32114       30.86946       -3.69530
C          7.29802       30.23512       -2.29298
C         10.31155       30.69878       -2.54014
H          6.86836       33.53656       -4.56991
H          7.33194       30.61697       -5.28359
H          7.87940       32.24482       -2.73841
H          9.72940       31.62842       -4.39576
H          9.27872       29.89068       -4.22301
H          7.24786       29.22651       -2.75213
H          7.89255       30.18854       -1.35927
H          6.28169       30.53653       -1.96207
H         10.41973       31.64557       -1.97446
H         10.00425       29.88310       -1.85333
H         11.30134       30.40595       -2.95135
N          4.99499       29.95835       -4.73854
C          3.61409       29.56350       -4.53857
C          3.56058       28.54112       -3.41655
O          4.60100       28.20147       -2.87600
C          3.01659       29.02937       -5.85939
C          2.88826       30.10918       -6.91159
O          3.95875       30.64613       -7.53834
O          1.77442       30.48979       -7.23378
H          5.62310       29.24032       -5.12167
H          3.00490       30.42719       -4.19267
H          1.99407       28.65600       -5.63950
H          3.60575       28.17262       -6.25617
N          2.37271       28.08078       -2.93662
C          2.29025       27.27677       -1.72119
C          2.99230       25.92183       -1.83374
O          3.83332       25.66828       -0.98279
C          0.83108       27.15088       -1.22815
C          0.75275       26.47244        0.12034
C          1.38722       27.03897        1.24245
C          0.04257       25.26964        0.27140
C          1.31793       26.40896        2.48683
C         -0.02650       24.64441        1.52043
C          0.61170       25.21260        2.62633
H          1.49990       28.40192       -3.38267
H          2.81277       27.85661       -0.92824
H          0.20732       26.61428       -1.96239
H          0.39558       28.16848       -1.12525
H          1.93594       27.96825        1.15928
H         -0.45573       24.81457       -0.57549
H          1.81171       26.85049        3.34296
H         -0.57484       23.71832        1.63108
H          0.55824       24.72731        3.59192
N          2.73558       24.99587       -2.81506
C          3.41756       23.70423       -2.91433
C          4.92653       23.82308       -2.82516
O          5.56937       23.05904       -2.11980
C          3.04525       23.21280       -4.32424
C          1.66249       23.78299       -4.49995
C          1.83253       25.18892       -3.93417
H          3.01658       23.01522       -2.13799
H          3.67598       23.71694       -5.09303
H          3.14001       22.11537       -4.46946
H          1.26087       23.74764       -5.53512
H          0.98119       23.21315       -3.82793
H          2.31654       25.87826       -4.66206
H          0.83076       25.55881       -3.66663
N          5.53875       24.79489       -3.54599
C          6.97695       25.00365       -3.64270
C          7.55103       25.31362       -2.27291
O          8.46456       24.62592       -1.83931
C          7.25340       26.14650       -4.64903
C          6.68181       25.80556       -6.05009
C          6.68498       26.96709       -6.98568
O          7.24650       28.13766       -6.64924
O          6.00616       26.90571       -7.99796
H          4.91472       25.43692       -4.05258
H          7.46210       24.08689       -4.04698
H          8.34495       26.34164       -4.73186
H          6.76295       27.07085       -4.27066
H          5.61266       25.54029       -5.97919
H          7.17870       24.92637       -6.49992
N          7.02889       26.31579       -1.51588
C          7.50307       26.62598       -0.18644
H          8.56380       26.94838       -0.22605
H          6.89398       27.44980        0.24560
H          7.40195       25.73526        0.46969
H          6.24376       26.86181       -1.88183
Ca         6.02634       29.79117       -7.50484
O          9.66927       30.01590       -7.44262
H          9.37048       29.81545       -6.52315
H         10.52280       30.50315       -7.32669
O          9.21164       31.79111       -9.72875
H          9.55781       31.53995      -10.62190
H          9.85311       32.46651       -9.39732

Ca 1.0



