%chk=holoCaM.loop2.water2.frame317.chk
%nprocshared=20
%mem=10GB
%nosave
#b3lyp/svp scf=(tight,noincore,xqc) Test 
#IOP(5/87=12) Density=Current Pop=(MK,readradii) iop(6/33=2) iop(6/42=6)

holoCaM.loop2.water2.frame317 

   -2  1 
C        101.89473       21.05652       67.61034
C        100.40360       20.85511       67.56145
O         99.66653       21.75759       67.92887
H        102.22619       21.24110       68.65186
H        102.43845       20.16881       67.21948
H        102.17150       21.92676       66.97721
N         99.89093       19.69384       67.07356
C         98.46689       19.45382       66.86614
C         97.68172       19.36814       68.17491
O         98.09153       18.63534       69.06427
C         98.28428       18.12464       66.10221
C         96.90686       17.97335       65.52873
O         96.57213       16.91273       65.02900
O         96.08759       19.03599       65.43655
H        100.55775       18.97126       66.75937
H         98.08100       20.27240       66.21993
H         98.51555       17.27934       66.78628
H         98.97959       18.07093       65.23734
N         96.49176       20.02371       68.31508
C         95.62966       19.93254       69.49340
C         94.24640       19.33323       69.18249
O         93.45712       19.20086       70.10756
C         95.46270       21.34275       70.07353
H         96.16631       20.60264       67.53434
H         96.10056       19.29133       70.26896
H         94.97541       22.01255       69.33068
H         94.84253       21.32333       70.99463
H         96.45643       21.76821       70.33018
N         93.86423       18.99406       67.91461
C         92.51670       18.56638       67.53511
C         92.51547       17.37355       66.56574
O         91.82073       16.41241       66.86632
C         91.70774       19.77806       67.01493
C         92.49655       20.72172       66.16356
O         93.03441       20.33767       65.00304
O         92.69632       21.86100       66.55704
H         94.51275       19.17321       67.14877
H         91.93818       18.23528       68.42803
H         91.39835       20.36968       67.90619
H         90.77887       19.44758       66.50273
N         93.24393       17.34356       65.40443
C         93.20905       16.22840       64.45237
C         92.88897       16.63770       63.01205
O         92.74570       15.75051       62.18317
H         93.88264       18.11529       65.20190
H         92.44908       15.47930       64.76404
H         94.19442       15.71868       64.45010
N         92.74386       17.94174       62.63850
C         92.26655       18.38487       61.32469
C         93.35015       18.50131       60.23892
O         93.02307       18.95357       59.15017
C         91.49089       19.71564       61.50321
C         92.33352       20.88611       61.93798
N         91.75634       22.07690       62.20694
O         93.53931       20.76624       62.05507
H         92.83554       18.65404       63.36385
H         91.49783       17.66541       60.96626
H         90.70556       19.54914       62.27394
H         90.98488       19.98818       60.55350
H         90.73699       22.19916       62.12946
H         92.33308       22.87551       62.50340
N         94.63465       18.08275       60.43038
C         95.65273       18.10421       59.38075
C         96.29366       19.45623       59.09041
O         97.16589       19.48375       58.23230
H         94.87648       17.61666       61.31310
H         95.23038       17.67032       58.44752
H         96.48860       17.44445       59.69809
N         95.96549       20.60037       59.75676
C         96.62803       21.88884       59.53528
C         97.25823       22.42659       60.81486
O         97.03770       21.88359       61.88828
C         95.60692       22.92689       58.98936
C         95.16249       22.58210       57.56918
O         94.47263       22.99908       59.81768
H         95.22308       20.56256       60.45918
H         97.45775       21.78572       58.80195
H         96.07337       23.93555       58.91072
H         94.73465       23.49833       60.63430
H         94.66256       21.59250       57.53550
H         94.45408       23.35570       57.20141
H         96.04333       22.57162       56.89117
N         98.01025       23.56220       60.75842
C         98.48367       24.29902       61.92295
C         97.55641       25.47945       62.06295
O         97.31929       26.18438       61.08900
C         99.96370       24.75843       61.77085
C        100.90769       23.53347       61.69953
C        100.36326       25.68240       62.94862
C        102.36482       23.90618       61.40731
H         98.14546       24.00924       59.83775
H         98.41220       23.68295       62.84773
H        100.05116       25.34208       60.82783
H        100.57164       22.86048       60.88295
H        100.86434       22.96717       62.65597
H         99.70701       26.57478       62.99732
H        100.29400       25.14043       63.91602
H        101.38906       26.08121       62.83210
H        102.80502       24.52675       62.21351
H        102.97593       22.98275       61.33469
H        102.43231       24.45500       60.44422
N         96.99404       25.75355       63.26465
C         95.99213       26.78280       63.45853
C         96.62987       28.01157       64.04558
O         97.82480       28.02303       64.30013
C         94.89753       26.26273       64.41140
C         94.32654       24.95023       63.98677
O         95.15767       23.90697       63.81921
O         93.11894       24.79652       63.90584
H         97.29000       25.20707       64.08555
H         95.53189       27.06375       62.48488
H         94.07831       27.00282       64.53132
H         95.35686       26.09208       65.41016
N         95.87613       29.10843       64.27316
C         96.39346       30.33696       64.84604
C         96.98778       30.12673       66.24518
O         98.14336       30.48646       66.41091
C         95.29138       31.40811       64.76371
C         95.65243       32.75560       65.32923
C         96.87601       33.38400       65.03085
C         94.72127       33.41977       66.14382
C         97.16306       34.64629       65.55749
C         95.00343       34.68920       66.64872
C         96.22551       35.30042       66.36100
H         94.87887       29.06853       64.00424
H         97.21855       30.69411       64.18957
H         94.35356       31.03753       65.23037
H         95.07871       31.54991       63.68046
H         97.61403       32.90339       64.40293
H         93.76394       32.96497       66.36861
H         98.11038       35.12035       65.33665
H         94.27025       35.19871       67.25947
H         96.44313       36.28282       66.75709
N         96.32422       29.53599       67.29075
C         96.92226       29.35088       68.61109
C         98.10515       28.39227       68.58594
O         99.06438       28.63294       69.30761
C         95.75086       28.84538       69.46550
C         94.89838       28.09475       68.47096
C         94.97609       29.00339       67.24353
H         97.26036       30.30929       69.06438
H         96.03449       28.29309       70.38799
H         95.14627       29.73042       69.76823
H         95.41144       27.13523       68.25072
H         93.86723       27.85291       68.80454
H         94.76776       28.37486       66.36091
H         94.25904       29.84928       67.30540
N         98.11697       27.29508       67.78281
C         99.20174       26.31565       67.76720
C        100.50464       26.97513       67.34987
O        101.46581       26.92486       68.10411
C         98.85416       25.14238       66.82566
C         97.57339       24.41337       67.28786
C         97.12454       23.32898       66.35891
O         97.77735       23.01190       65.37844
O         95.94441       22.73225       66.59252
H         97.31899       27.15927       67.14873
H         99.32491       25.88860       68.78858
H         99.69573       24.41510       66.80236
H         98.70774       25.53907       65.80126
H         96.72645       25.12158       67.34301
H         97.72423       23.98180       68.30082
N        100.59696       27.63953       66.16698
C        101.80044       28.31813       65.74188
H        102.62980       27.58955       65.62962
H        101.62514       28.81471       64.76290
H        102.07932       29.09563       66.48472
H         99.77858       27.68491       65.55329
Ca        94.45629       21.87200       64.27967
O         96.45105       19.17357       62.62013
H         97.18123       19.35869       61.98049
H         96.52684       18.20184       62.78286
O         98.84433       20.69916       63.74013
H         99.46008       21.41996       64.02275
H         99.42485       20.03434       63.29311

Ca 1.0



