%chk=holoCaM-CaMKII.loop1.water2.frame125.chk
%nprocshared=20
%mem=10GB
%nosave
#b3lyp/svp scf=(tight,noincore,xqc) Test 
#IOP(5/87=12) Density=Current Pop=(MK,readradii) iop(6/33=2) iop(6/42=6)

holoCaM-CaMKII.loop1.water2.frame125 

   0  1 
C         20.01145       61.10504       68.46212
C         19.05062       61.38160       67.35584
O         17.85585       61.45784       67.60969
H         20.72280       61.95416       68.54329
H         19.47081       60.99772       69.42658
H         20.56507       60.17070       68.24258
N         19.51002       61.59742       66.09234
C         18.60697       61.98210       65.02846
C         17.80096       60.77192       64.54819
O         18.37442       59.86184       63.96565
C         19.38382       62.65416       63.87369
C         18.45783       63.42480       62.99398
O         18.87763       63.99883       62.00823
O         17.17905       63.55871       63.37762
H         20.52765       61.59649       65.92360
H         17.94471       62.76424       65.46845
H         19.94901       61.89182       63.29500
H         20.10316       63.39633       64.28159
N         16.47184       60.67482       64.82372
C         15.65117       59.51053       64.49363
C         15.35890       59.37784       62.99720
O         15.55372       58.29376       62.46449
C         14.30846       59.55416       65.25569
C         14.41630       59.50929       66.79924
C         15.10203       58.23506       67.34853
C         16.50889       58.52042       67.90004
N         17.17181       57.28861       68.32855
H         16.05030       61.42812       65.38126
H         16.16727       58.58670       64.83579
H         13.70426       58.66968       64.95043
H         13.73676       60.46037       64.96309
H         13.36609       59.50753       67.16241
H         14.88384       60.42456       67.21987
H         15.11560       57.43614       66.57575
H         14.50687       57.84277       68.20163
H         16.40834       59.20517       68.77502
H         17.13733       59.01712       67.13388
H         18.07656       57.53005       68.79483
H         16.57407       56.75941       69.00431
H         17.37326       56.69269       67.49311
N         14.85221       60.42068       62.26915
C         14.41221       60.30408       60.86849
C         15.42491       60.83214       59.84686
O         15.14097       60.73572       58.66010
C         12.99286       60.90717       60.64687
C         12.85840       62.38844       60.87846
O         11.81477       62.95994       60.61415
O         13.83562       63.07940       61.45995
H         14.78278       61.32904       62.74192
H         14.31079       59.22536       60.61142
H         12.25405       60.39157       61.29746
H         12.70177       60.71503       59.59139
N         16.66099       61.28353       60.20475
C         17.71948       61.53142       59.23006
C         17.57205       62.79845       58.41264
O         17.53702       62.72382       57.19264
H         16.91988       61.30988       61.20118
H         17.81102       60.64524       58.56240
H         18.68265       61.62776       59.77388
N         17.56505       64.00839       59.03443
C         17.61098       65.30219       58.35192
C         18.78511       66.17022       58.84572
O         18.83362       67.33991       58.48978
C         16.24949       66.01939       58.49945
C         15.83330       66.35254       59.90054
O         16.62556       66.07283       60.94066
O         14.75766       66.89052       60.10047
H         17.54334       64.00507       60.05862
H         17.74339       65.16656       57.25528
H         15.46911       65.36366       58.05752
H         16.27239       66.96574       57.91662
N         19.79285       65.66049       59.62145
C         20.93555       66.44070       60.08712
C         20.67607       67.26364       61.34068
O         21.60708       67.92340       61.78098
H         19.81842       64.65062       59.81156
H         21.31475       67.08665       59.26369
H         21.75600       65.73962       60.35171
N         19.46159       67.29436       61.96617
C         19.17770       68.11420       63.14769
C         18.49199       67.30291       64.25133
O         18.10680       66.17000       64.01129
C         18.31759       69.33738       62.73665
C         18.97515       70.14310       61.60200
O         17.01823       68.95654       62.36518
H         18.69733       66.76096       61.55719
H         20.13287       68.50276       63.56244
H         18.22467       70.01044       63.61515
H         17.08241       68.42222       61.53491
H         18.36082       71.03403       61.35836
H         19.99170       70.47418       61.90029
H         19.06020       69.52894       60.67823
N         18.33125       67.82550       65.50458
C         17.71123       67.10579       66.62378
C         16.58949       67.96568       67.20179
O         16.82426       69.14198       67.44380
C         18.76422       66.79711       67.73728
C         20.03084       66.11750       67.15283
C         18.13163       65.89521       68.82510
C         21.15306       65.94273       68.18246
H         18.71157       68.76578       65.69116
H         17.31083       66.12321       66.28914
H         19.08025       67.76061       68.19507
H         20.45012       66.76153       66.35200
H         19.77392       65.13099       66.70762
H         17.23830       66.36956       69.26765
H         17.83032       64.91462       68.39283
H         18.82624       65.70837       69.66680
H         20.86883       65.24388       68.99391
H         22.05195       65.52441       67.68375
H         21.42279       66.92658       68.62399
N         15.37926       67.42982       67.53743
C         14.31111       68.20148       68.17441
C         14.22991       67.83148       69.64336
O         14.94541       66.94416       70.07605
C         12.94708       67.95276       67.47510
C         13.00529       68.23660       65.97625
O         12.55192       66.62245       67.66511
H         15.24139       66.41968       67.42920
H         14.54356       69.28729       68.12642
H         12.19281       68.62707       67.94228
H         11.59034       66.56043       67.42381
H         13.70809       67.52795       65.49293
H         12.00025       68.08130       65.52734
H         13.32784       69.27955       65.78497
N         13.39301       68.49038       70.48790
C         13.26447       68.12432       71.89619
C         12.66043       66.72531       72.00306
O         13.12684       65.92457       72.80035
C         12.42159       69.18011       72.65592
C         12.45156       68.94103       74.17300
O         12.96308       70.45332       72.40491
H         12.83479       69.27512       70.11771
H         14.27423       68.14234       72.36622
H         11.37151       69.13748       72.28211
H         12.23703       71.11430       72.55285
H         12.02538       67.95203       74.43621
H         13.49813       68.99478       74.54765
H         11.86280       69.72772       74.69164
N         11.62773       66.36794       71.18570
C         10.95876       65.06718       71.20671
C         11.92783       63.92850       70.90536
O         11.99790       62.98623       71.68138
C          9.76522       65.10075       70.21957
C          8.75105       63.96839       70.45556
C          7.43307       64.25781       69.71354
C          6.31787       63.29204       70.14074
N          5.03034       63.69612       69.57308
H         11.28878       67.07396       70.51329
H         10.52985       64.92833       72.22377
H         10.10140       65.13613       69.15891
H          9.22023       66.04694       70.43276
H          8.51533       63.95358       71.54174
H          9.17150       62.97937       70.17084
H          7.58474       64.22025       68.61222
H          7.09803       65.28258       69.98662
H          6.22722       63.30708       71.25036
H          6.56750       62.25625       69.82326
H          4.77959       64.65662       69.90615
H          5.07116       63.68652       68.52880
H          4.28879       63.03339       69.89593
N         12.74710       63.98751       69.81688
C         13.75957       62.98251       69.48128
C         14.70866       62.77602       70.65063
O         14.91933       61.63819       71.04673
C         14.55126       63.39353       68.20954
C         13.63857       63.44033       66.96563
C         14.37077       63.78692       65.69935
O         15.01896       64.95674       65.57065
O         14.32921       63.02550       64.74957
H         12.67666       64.82421       69.22938
H         13.26815       62.00849       69.25954
H         15.35142       62.64461       68.02293
H         15.04234       64.37474       68.37548
H         12.83673       64.18779       67.09930
H         13.15933       62.44584       66.83726
N         15.26853       63.84163       71.28567
C         16.13638       63.73461       72.44024
H         17.09378       64.25458       72.22969
H         15.64848       64.22589       73.30959
H         16.35511       62.68094       72.71083
H         15.03377       64.78494       70.96488
Ca        15.37412       64.31961       62.39513
O         14.21858       67.88439       62.93645
H         14.99755       67.99234       63.53758
H         13.71326       68.73056       63.03035
O         12.49972       65.52288       63.38201
H         11.52733       65.67959       63.47481
H         12.58156       64.99198       62.55215

Ca 1.0



