%chk=holoCaM.loop4.water3.frame70.chk
%nprocshared=20
%mem=10GB
%nosave
#b3lyp/svp scf=(tight,noincore,xqc) Test 
#IOP(5/87=12) Density=Current Pop=(MK,readradii) iop(6/33=2) iop(6/42=6)

holoCaM.loop4.water3.frame70 

   -3  1 
C        100.06742        4.07695       26.17360
C         99.59601        4.84859       27.37135
O         98.68515        4.39024       28.04366
H        101.13193        3.79147       26.32407
H         99.47930        3.14086       26.05093
H         99.97804        4.68900       25.25499
N        100.23116        5.99847       27.74044
C         99.99706        6.65552       29.02152
C         99.96189        8.18030       28.93561
O        100.87870        8.75629       28.36454
C        101.15385        6.24499       29.94244
C        101.00155        6.87280       31.28521
O         99.97365        6.69838       31.91710
O        101.97099        7.67252       31.76872
H        101.03686        6.30839       27.17455
H         99.06227        6.28600       29.49697
H        102.12925        6.54622       29.50082
H        101.15120        5.14031       30.06246
N         99.00367        8.89692       29.61110
C         99.03001       10.35832       29.74230
C         99.13709       10.86127       31.20164
O         99.37303       12.05023       31.35642
C         97.78776       11.02253       29.06641
C         96.45860       10.62672       29.76768
C         97.74976       10.70485       27.56152
C         95.25704       11.46157       29.32043
H         98.25421        8.37991       30.08537
H         99.93502       10.74844       29.22640
H         97.91472       12.12374       29.17012
H         96.55248       10.79628       30.85981
H         96.23989        9.55289       29.60092
H         98.70149       11.01627       27.08186
H         97.59922        9.61812       27.38919
H         96.93407       11.26043       27.05597
H         95.44681       12.53797       29.52206
H         95.03264       11.32130       28.24508
H         94.36010       11.15248       29.89865
N         98.88094       10.07843       32.30139
C         98.79429       10.62195       33.67543
C         99.61378        9.85720       34.72838
O         99.62037       10.29222       35.87295
C         97.30967       10.70913       34.10834
C         96.59423        9.41958       33.86012
O         97.08238        8.26673       34.34119
O         95.66881        9.38859       33.06380
H         98.61412        9.09688       32.15604
H         99.18263       11.66286       33.70398
H         96.81213       11.49554       33.49749
H         97.22449       11.01151       35.17366
N        100.35573        8.75714       34.43246
C        101.24884        8.09373       35.37814
C        100.60299        7.30785       36.51429
O        101.36064        6.77007       37.31003
H        100.37530        8.43484       33.46592
H        101.93500        8.85602       35.80768
H        101.87692        7.36982       34.81614
N         99.25378        7.17586       36.67992
C         98.67061        6.44140       37.81029
C         99.01222        4.94886       37.83561
O         98.84789        4.33886       38.88327
C         97.13785        6.63801       37.89695
C         96.35146        6.15813       36.70315
O         96.90341        5.70464       35.71502
O         95.00946        6.25601       36.72093
H         98.63024        7.64985       36.02158
H         99.10233        6.88726       38.73430
H         96.92032        7.71910       38.02672
H         96.76165        6.10297       38.79588
N         99.45609        4.29053       36.72906
C         99.85952        2.89029       36.71500
C         98.95604        2.00147       35.87713
O         99.30182        0.83953       35.71671
H         99.51597        4.80675       35.84851
H         99.88526        2.45862       37.73951
H        100.89467        2.84297       36.31317
N         97.75916        2.43467       35.37807
C         96.81652        1.56736       34.67539
C         96.34838        2.17950       33.36643
O         95.84327        3.29443       33.37270
C         95.56906        1.32186       35.54326
C         95.89822        0.59223       36.85227
C         94.63561        0.18173       37.56634
N         93.73754        1.10315       37.98560
O         94.41789       -1.00480       37.76227
H         97.45452        3.39200       35.57805
H         97.26455        0.56924       34.47413
H         94.87436        0.67858       34.95696
H         95.05544        2.28406       35.76331
H         96.51257        1.24128       37.51286
H         96.48490       -0.32345       36.61680
H         93.89878        2.10883       37.83348
H         92.87291        0.80715       38.46266
N         96.40015        1.45423       32.21179
C         95.80152        1.91017       30.95761
C         94.29537        2.03268       31.13943
O         93.67389        1.06099       31.54867
C         96.09530        0.92643       29.78421
C         95.45226        1.42660       28.47400
C         97.60462        0.75791       29.54308
H         96.82836        0.51770       32.24575
H         96.24005        2.88651       30.68031
H         95.66678       -0.07123       30.02795
H         95.86408        2.41997       28.19546
H         95.65389        0.71609       27.64535
H         94.35034        1.51418       28.56983
H         98.12135        0.35350       30.43557
H         97.77628        0.04375       28.70977
H         98.06870        1.72791       29.27076
N         93.64156        3.18247       30.80281
C         92.19093        3.33485       30.90237
C         91.57411        3.49473       29.52000
O         92.27741        3.39716       28.52730
C         91.80276        4.47980       31.88153
C         91.82414        5.89615       31.33935
N         92.95224        6.47842       30.88439
O         90.78498        6.54017       31.34065
H         94.19539        3.95437       30.41438
H         91.75160        2.41601       31.34747
H         92.42358        4.40113       32.79808
H         90.75464        4.29525       32.20583
H         93.84375        5.98035       30.89611
H         92.93781        7.44831       30.53831
N         90.24312        3.73068       29.39536
C         89.54219        3.94481       28.12856
C         90.09537        5.12142       27.32411
O         90.20014        4.98867       26.11297
C         88.01026        4.02881       28.37226
C         87.57533        4.99958       29.45409
C         87.46354        6.37699       29.21332
C         87.26889        4.50613       30.73815
C         87.06251        7.24239       30.24230
C         86.89017        5.37047       31.76459
C         86.78439        6.74060       31.52331
O         86.41481        7.56046       32.52798
H         89.70146        3.75718       30.26664
H         89.67859        3.04303       27.48878
H         87.72369        3.00950       28.71384
H         87.44082        4.19823       27.43254
H         87.67682        6.77983       28.23177
H         87.34748        3.44759       30.95454
H         86.97375        8.30339       30.04635
H         86.68101        4.97151       32.74962
H         86.32983        8.51682       32.41039
N         90.48417        6.29036       27.90965
C         91.00291        7.43420       27.14486
C         92.38527        7.18494       26.51546
O         92.86936        8.06605       25.81829
C         91.09076        8.70592       28.02660
C         89.74672        9.07910       28.67233
C         89.83351       10.37519       29.42201
O         90.09484       11.41112       28.83180
O         89.59830       10.40496       30.74798
H         90.37085        6.37074       28.92527
H         90.27777        7.65576       26.33049
H         91.41281        9.55299       27.38042
H         91.85267        8.57092       28.82249
H         89.45208        8.29260       29.39034
H         88.95918        9.16889       27.89395
N         93.08653        6.03520       26.73121
C         94.43390        5.76451       26.22949
C         94.46834        4.56322       25.29399
O         95.55105        4.23379       24.82762
C         95.34723        5.46129       27.43070
C         95.46091        6.64846       28.38715
C         96.14826        6.27917       29.66613
O         96.59277        5.16274       29.86178
O         96.19550        7.18625       30.64453
H         92.67097        5.31489       27.32029
H         94.83850        6.63551       25.66876
H         96.36930        5.18229       27.09563
H         94.90690        4.59658       27.97632
H         94.44620        6.99570       28.66250
H         95.99760        7.48924       27.89706
N         93.34682        3.85587       24.97258
C         93.35900        2.69368       24.10797
H         92.71493        2.88701       23.22552
H         94.37837        2.43704       23.75087
H         92.95674        1.82170       24.66505
H         92.43303        4.13282       25.34874
Ca        96.94950        6.77080       32.70548
O        100.26004        4.63423       33.59820
H        100.62399        5.47082       33.98146
H        100.99508        3.98031       33.68678
O         98.89919        3.71802       31.39851
H         99.81281        3.35348       31.29263
H         98.51877        3.67140       30.49014
O         94.25718        6.20644       33.39637
H         93.97739        7.11155       33.68183
H         94.60057        5.77009       34.21257

Ca 1.0



