%chk=holoCaM-CaMKII.loop3.water1.frame350.chk
%nprocshared=20
%mem=10GB
%nosave
#b3lyp/svp scf=(tight,noincore,xqc) Test 
#IOP(5/87=12) Density=Current Pop=(MK,readradii) iop(6/33=2) iop(6/42=6)

holoCaM-CaMKII.loop3.water1.frame350 

   0  1 
C         21.66579       68.01136       34.70903
C         20.57967       69.02019       34.48530
O         20.88558       70.19287       34.31834
H         22.66488       68.49884       34.69792
H         21.52167       67.51885       35.69319
H         21.63398       67.24619       33.90594
N         19.27331       68.62668       34.47644
C         18.16389       69.54518       34.26645
C         17.28584       69.60215       35.51227
O         16.82814       68.57360       35.98920
C         17.34915       69.15853       33.00112
C         16.27368       70.18438       32.70690
O         15.51763       70.16888       31.59383
O         16.09682       71.10851       33.47862
H         19.05574       67.63026       34.63147
H         18.55659       70.56775       34.06457
H         16.89449       68.15153       33.10743
H         18.04863       69.14571       32.13711
N         16.97095       70.81867       36.04351
C         16.11248       71.04240       37.20250
C         14.74548       70.38226       37.06831
O         14.37007       69.66763       37.98773
C         15.88927       72.56152       37.42085
C         17.17280       73.32446       37.80751
C         16.97283       74.85029       37.86758
C         15.94650       75.31574       38.91178
N         15.84190       76.77564       38.91390
H         17.34631       71.64986       35.56365
H         16.60484       70.62949       38.11182
H         15.15415       72.69274       38.24359
H         15.45816       72.99781       36.49202
H         17.96517       73.14576       37.05242
H         17.54532       72.95057       38.78593
H         16.65680       75.21456       36.86873
H         17.95521       75.31334       38.10635
H         16.25732       74.96623       39.92075
H         14.94566       74.89245       38.68159
H         15.53137       77.11500       37.97398
H         15.13633       77.06977       39.62712
H         16.76535       77.20422       39.15362
N         13.92963       70.59969       35.99172
C         12.53254       70.15455       35.96072
C         12.26513       68.96657       35.04824
O         11.14281       68.47843       35.06830
C         11.61322       71.35019       35.61229
C         11.74778       71.86266       34.19669
O         11.01357       72.91935       33.80221
O         12.48968       71.32233       33.39406
H         14.29162       71.15008       35.20169
H         12.24224       69.80853       36.97663
H         11.83673       72.18211       36.31451
H         10.55248       71.05385       35.75655
N         13.22223       68.42829       34.24070
C         12.98373       67.24607       33.42845
C         11.87211       67.44251       32.42449
O         10.89780       66.70470       32.48647
H         14.16493       68.84073       34.21668
H         12.72974       66.39578       34.10113
H         13.91128       66.97847       32.87965
N         11.95711       68.40235       31.45765
C         10.92332       68.59218       30.43950
C         11.42869       68.32967       29.02407
O         10.60759       68.37096       28.11810
C         10.26903       69.98700       30.57424
C         11.16718       71.17301       30.30945
N         10.66889       72.42511       30.42831
O         12.33313       71.01919       29.98236
H         12.78891       69.01070       31.44775
H         10.10415       67.85706       30.59907
H          9.86223       70.07868       31.60491
H          9.41346       70.04969       29.86629
H          9.68566       72.57571       30.69809
H         11.26440       73.24688       30.25147
N         12.73698       68.03780       28.74534
C         13.20481       67.70995       27.40319
C         14.17733       68.72062       26.83088
O         14.59718       68.52274       25.69894
H         13.43590       68.02004       29.50108
H         12.35701       67.64750       26.68932
H         13.68829       66.71009       27.43250
N         14.57701       69.82812       27.52060
C         15.47779       70.82951       26.94746
C         16.11841       71.69889       28.01919
O         15.68937       71.66229       29.16225
C         14.78839       71.66711       25.83691
C         13.49528       72.34728       26.26024
C         13.40821       73.74966       26.31810
C         12.34411       71.58972       26.55716
C         12.20502       74.37288       26.67668
C         11.14755       72.21215       26.91440
C         11.07125       73.60347       26.97696
O          9.90415       74.18627       27.31820
H         14.24780       69.94789       28.48740
H         16.34148       70.28009       26.51010
H         14.54968       71.01946       24.96736
H         15.52182       72.42053       25.47581
H         14.26869       74.36347       26.08515
H         12.34869       70.51489       26.49819
H         12.15337       75.45330       26.71759
H         10.27543       71.60826       27.13530
H          9.80094       75.14695       27.36624
N         17.26035       72.39971       27.74007
C         18.07212       73.01633       28.78673
C         18.29259       74.48971       28.49704
O         18.97218       74.81271       27.53155
C         19.43189       72.25433       28.91195
C         19.19469       70.73085       29.10944
C         20.27835       72.82879       30.06635
C         20.47686       69.89587       29.07354
H         17.63272       72.39082       26.77748
H         17.55532       72.92497       29.75886
H         19.99097       72.38829       27.95857
H         18.56663       70.34538       28.27908
H         18.65544       70.54770       30.06391
H         21.27238       72.34324       30.12123
H         20.47271       73.90680       29.91408
H         19.75749       72.69111       31.03777
H         20.21572       68.81950       29.15469
H         21.00943       70.05517       28.11117
H         21.15306       70.14032       29.91580
N         17.74876       75.44536       29.30495
C         18.00181       76.87185       29.11488
C         19.39894       77.24393       29.60172
O         20.09366       76.40267       30.15094
C         16.94353       77.70645       29.86179
O         17.02368       77.48142       31.23949
H         17.11749       75.14720       30.06415
H         17.89329       77.11367       28.03442
H         15.93506       77.41484       29.49126
H         17.09965       78.78812       29.65758
H         16.28601       78.00168       31.65137
N         19.86446       78.51483       29.45261
C         21.14951       78.96693       29.98095
C         21.16350       78.89594       31.49848
O         22.08874       78.33015       32.06337
C         21.41844       80.41225       29.54796
H         19.27168       79.19414       28.95148
H         21.97237       78.34578       29.55998
H         21.44023       80.47436       28.43918
H         20.63254       81.09813       29.92956
H         22.40571       80.74689       29.93404
N         20.14171       79.44595       32.21573
C         20.06784       79.46406       33.67514
C         20.24372       78.08401       34.27049
O         21.06940       77.92459       35.15903
C         18.71568       80.03671       34.12023
H         19.36015       79.86366       31.68656
H         20.86672       80.12732       34.07549
H         18.66033       80.07664       35.22928
H         18.58829       81.06683       33.72563
H         17.87959       79.40701       33.74453
N         19.51798       77.03244       33.80390
C         19.64453       75.67697       34.32811
C         21.08918       75.21193       34.23790
O         21.66926       74.87144       35.25984
C         18.76195       74.69661       33.53388
C         17.24663       74.99569       33.56734
C         16.50554       74.02583       32.68562
O         15.17940       74.12518       32.46494
O         17.11440       73.12574       32.13112
H         18.87599       77.21119       33.02057
H         19.32163       75.66232       35.39385
H         18.92433       73.66939       33.93364
H         19.09094       74.71629       32.47144
H         17.04098       76.01416       33.20096
H         16.86191       74.91709       34.60293
N         21.73786       75.18873       33.04090
C         23.11484       74.76839       32.91202
H         23.77001       75.42332       33.52478
H         23.22321       73.71419       33.24317
H         23.43294       74.84320       31.84994
H         21.24470       75.49036       32.19036
Ca        14.42640       72.16186       31.63011
O         13.91033       74.72279       29.80365
H         13.40733       74.02467       29.31454
H         13.29463       75.49742       29.83660

Ca 1.0



