%chk=holoCaM-CaMKII.loop2.water2.frame456.chk
%nprocshared=20
%mem=10GB
%nosave
#b3lyp/svp scf=(tight,noincore,xqc) Test 
#IOP(5/87=12) Density=Current Pop=(MK,readradii) iop(6/33=2) iop(6/42=6)

holoCaM-CaMKII.loop2.water2.frame456 

   -2  1 
C         66.50137       43.79543       47.59166
C         67.92837       43.80390       48.06234
O         68.77442       43.15365       47.46704
H         65.83535       43.43654       48.40410
H         66.20274       44.83315       47.32297
H         66.37262       43.15071       46.69809
N         68.26262       44.57553       49.12677
C         69.62486       44.77500       49.60436
C         70.26581       43.51797       50.18325
O         69.70039       42.92225       51.08942
C         69.60897       45.88825       50.66528
C         70.98385       46.17917       51.15482
O         71.86216       46.45329       50.35563
O         71.25850       46.10519       52.47057
H         67.50245       45.11324       49.57454
H         70.24026       45.14592       48.75508
H         68.96201       45.60625       51.52426
H         69.20017       46.81369       50.20650
N         71.50272       43.11997       49.74918
C         72.24269       41.98931       50.30538
C         73.59770       42.37785       50.92039
O         74.21137       41.50073       51.51286
C         72.46777       40.95427       49.19653
H         71.94417       43.65224       48.99049
H         71.64650       41.51101       51.11202
H         71.49358       40.62908       48.77391
H         73.07870       41.39348       48.37686
H         72.99463       40.05879       49.59013
N         74.15891       43.62175       50.79009
C         75.49466       43.96441       51.30924
C         75.55301       45.26746       52.12442
O         76.61620       45.56028       52.65550
C         76.51251       44.01522       50.15104
C         76.01091       44.77701       48.96376
O         76.01458       44.24821       47.86364
O         75.50018       46.00971       49.09433
H         73.67117       44.32701       50.22290
H         75.85625       43.17396       52.00285
H         76.72992       42.97913       49.81011
H         77.47206       44.44909       50.50673
N         74.47790       46.08417       52.29619
C         74.48068       47.27638       53.14071
C         75.35137       48.44129       52.68157
O         75.39715       49.42177       53.41140
H         73.59155       45.81120       51.87531
H         74.79870       46.97647       54.16335
H         73.44175       47.66335       53.21491
N         76.07825       48.42925       51.52665
C         76.99790       49.51327       51.15905
C         76.33283       50.86867       50.87152
O         77.06247       51.84421       50.76252
C         77.89809       49.08174       49.97389
C         77.15457       48.78157       48.69553
N         77.82674       48.35947       47.60118
O         75.94381       48.90545       48.64314
H         76.04178       47.59244       50.93365
H         77.67584       49.66395       52.02858
H         78.44605       48.16136       50.27116
H         78.64726       49.87592       49.76787
H         78.84880       48.23808       47.62489
H         77.32328       48.14727       46.72821
N         74.98454       51.01332       50.71337
C         74.31768       52.29578       50.49618
C         73.69016       52.44433       49.11704
O         73.04026       53.45516       48.89086
H         74.39352       50.18105       50.75545
H         75.02318       53.14562       50.61891
H         73.53041       52.40509       51.27223
N         73.89977       51.53281       48.12547
C         73.43731       51.68629       46.74579
C         72.67359       50.44831       46.27880
O         72.54407       49.49420       47.03152
C         74.68177       51.91763       45.83587
C         75.35394       53.25902       46.12842
O         75.63358       50.90179       46.01744
H         74.48836       50.72016       48.32604
H         72.75777       52.56030       46.63833
H         74.38969       51.96440       44.76353
H         75.24993       50.08042       45.62471
H         74.63973       54.09089       45.95113
H         75.71790       53.30391       47.17585
H         76.22303       53.39455       45.44873
N         72.20579       50.38014       44.99729
C         71.65173       49.17220       44.39332
C         72.69173       48.65634       43.42392
O         73.13972       49.41261       42.57152
C         70.31733       49.44363       43.63423
C         69.23811       50.02109       44.57909
C         69.81899       48.13705       42.96512
C         67.94977       50.41562       43.84612
H         72.34891       51.19072       44.37619
H         71.45476       48.39287       45.16373
H         70.51673       50.19273       42.83524
H         69.63468       50.94150       45.05732
H         68.99626       49.28738       45.37882
H         68.91062       48.30115       42.35502
H         70.57300       47.73590       42.25939
H         69.60672       47.35957       43.73098
H         67.23893       50.87619       44.56229
H         68.17374       51.15174       43.04434
H         67.44110       49.53711       43.40057
N         73.08704       47.35623       43.46922
C         74.06948       46.79477       42.55195
C         73.37267       45.91896       41.54488
O         72.16877       45.74420       41.63207
C         75.13884       46.02703       43.34668
C         75.89381       46.96981       44.23105
O         75.23176       47.72174       45.12477
O         77.10392       47.08497       44.12325
H         72.63666       46.72100       44.14588
H         74.56469       47.59745       41.96223
H         75.85939       45.53408       42.66143
H         74.65243       45.24110       43.96777
N         74.06081       45.40203       40.49399
C         73.41173       44.63925       39.44067
C         72.82884       43.31538       39.94049
O         71.66933       43.07035       39.63604
C         74.35799       44.42757       38.24474
C         73.59266       43.93553       37.03728
C         72.59131       44.74197       36.45765
C         73.86569       42.67876       36.47760
C         71.87330       44.29243       35.34835
C         73.14387       42.23309       35.36479
C         72.14824       43.03788       34.80233
H         75.06637       45.61892       40.40839
H         72.57994       45.27413       39.06380
H         75.17458       43.73333       38.52939
H         74.82424       45.39739       37.96287
H         72.36344       45.72130       36.86053
H         74.63086       42.04349       36.90460
H         71.10414       44.91840       34.91315
H         73.35531       41.26202       34.93843
H         71.59020       42.69129       33.94256
N         73.51516       42.42003       40.73175
C         72.95225       41.15467       41.20463
C         71.83927       41.32367       42.24073
O         71.34479       40.31587       42.72609
C         74.17118       40.41484       41.76883
C         74.99786       41.54811       42.32213
C         74.87476       42.58905       41.21384
H         72.54651       40.55033       40.36373
H         73.94626       39.58562       42.47341
H         74.75075       39.99480       40.91469
H         74.47219       41.92940       43.22840
H         76.04324       41.29588       42.59959
H         75.07376       43.56548       41.68391
H         75.57991       42.39765       40.37780
N         71.35204       42.54949       42.57818
C         70.22223       42.78068       43.46241
C         69.03987       43.19106       42.60370
O         68.01179       42.53052       42.65767
C         70.59287       43.86622       44.49189
C         71.78426       43.42317       45.35946
C         72.26537       44.48840       46.30171
O         73.33750       44.23834       47.07205
O         71.72347       45.58001       46.36423
H         71.75809       43.38491       42.15436
H         69.93857       41.85385       44.01090
H         69.71890       44.08504       45.14250
H         70.86593       44.80042       43.95366
H         72.64327       43.16526       44.70523
H         71.50102       42.52215       45.94639
N         69.13569       44.23385       41.73266
C         68.07406       44.58873       40.81890
H         67.16798       44.89038       41.38190
H         68.40078       45.43469       40.17566
H         67.84086       43.72402       40.16043
H         70.00377       44.77569       41.67994
Ca        74.85480       46.90588       47.15627
O         72.47537       49.00105       49.76151
H         71.95124       49.77761       50.07807
H         72.87799       48.62367       50.58346
O         70.23135       47.88343       47.82360
H         69.45727       48.36629       48.20684
H         69.82776       47.14398       47.30459

Ca 1.0



