%chk=holoCaM-CaMKII.loop4.water1.frame346.chk
%nprocshared=20
%mem=10GB
%nosave
#b3lyp/svp scf=(tight,noincore,xqc) Test 
#IOP(5/87=12) Density=Current Pop=(MK,readradii) iop(6/33=2) iop(6/42=6)

holoCaM-CaMKII.loop4.water1.frame346 

   -3  1 
C         27.70894       68.27317       33.15468
C         27.26209       67.38169       32.04041
O         27.43110       66.17333       32.12929
H         28.46706       68.98666       32.76999
H         26.83759       68.83913       33.54666
H         28.15408       67.67818       33.97940
N         26.65267       67.92144       30.95173
C         26.17587       67.10915       29.84620
C         27.35944       66.50407       29.10711
O         28.14622       67.24778       28.53617
C         25.32134       67.97622       28.90677
C         24.67906       67.18948       27.81718
O         23.98679       67.76568       27.00280
O         24.84170       65.85888       27.73326
H         26.49154       68.94123       30.93552
H         25.51593       66.31386       30.26362
H         25.94759       68.77680       28.45634
H         24.50516       68.45410       29.49165
N         27.57035       65.15770       29.11665
C         28.73429       64.54870       28.47888
C         28.51328       64.55066       26.96502
O         29.23905       65.21177       26.23695
C         29.00632       63.09634       29.02082
C         29.07540       63.05863       30.57494
C         30.30549       62.54355       28.40102
C         29.22280       61.64481       31.14752
H         26.91134       64.57290       29.64511
H         29.62920       65.15516       28.74890
H         28.17417       62.42517       28.73031
H         28.13019       63.44650       31.00131
H         29.90278       63.69944       30.94567
H         30.48243       61.49179       28.70137
H         30.25021       62.54683       27.29315
H         31.17536       63.15837       28.71744
H         28.40753       60.98916       30.77538
H         30.19895       61.19449       30.88229
H         29.16064       61.68627       32.25555
N         27.52048       63.77712       26.44310
C         27.21846       63.60417       25.02049
C         26.54195       64.80500       24.33440
O         26.30487       64.70951       23.13723
C         26.34432       62.33480       24.81380
C         25.01435       62.36559       25.53025
O         24.14416       61.56518       25.22979
O         24.81797       63.20928       26.56225
H         27.01432       63.19419       27.11598
H         28.17504       63.40738       24.48728
H         26.89601       61.42647       25.13921
H         26.15855       62.22455       23.72279
N         26.22304       65.96215       24.98123
C         25.66849       67.12560       24.29232
C         24.22728       67.02065       23.79296
O         23.81048       67.96699       23.13826
H         26.47803       66.07009       25.96902
H         26.32901       67.36272       23.42881
H         25.70575       68.00197       24.97380
N         23.39547       65.95904       24.03821
C         22.03492       65.89184       23.47465
C         21.06178       66.94895       24.00111
O         19.94450       66.98529       23.50473
C         21.42702       64.47189       23.60454
C         21.08061       63.98322       24.98508
O         20.77570       62.81134       25.13357
O         21.16273       64.76266       26.07145
H         23.75517       65.15787       24.57622
H         22.13589       66.05775       22.37832
H         22.16522       63.76588       23.16634
H         20.49752       64.40361       22.99937
N         21.39720       67.83521       24.98416
C         20.49479       68.86225       25.48168
C         20.17312       68.72190       26.95603
O         19.37358       69.52397       27.42184
H         22.33258       67.80639       25.38823
H         19.52789       68.83703       24.93541
H         20.94994       69.86040       25.30317
N         20.72216       67.76097       27.76409
C         20.29609       67.58380       29.15636
C         21.23559       66.71200       29.98362
O         22.21454       66.20036       29.45465
C         18.83777       67.05183       29.17550
C         18.56828       65.76032       28.37076
C         19.10521       64.49686       28.99518
N         18.25218       63.57283       29.48852
O         20.30541       64.28319       29.03808
H         21.43776       67.13038       27.37834
H         20.32994       68.57485       29.66198
H         18.19751       67.82956       28.71249
H         18.46574       66.93025       30.21380
H         18.92991       65.85014       27.32348
H         17.46336       65.66325       28.31572
H         17.23283       63.71681       29.46571
H         18.61527       62.70965       29.90390
N         21.00963       66.53848       31.32394
C         21.87744       65.74826       32.19551
C         21.06128       64.66885       32.90700
O         20.19486       65.00721       33.70282
C         22.57315       66.66798       33.24355
C         23.59101       65.88099       34.08676
C         23.29362       67.85023       32.57913
H         20.20521       67.01800       31.75741
H         22.67681       65.27010       31.59085
H         21.79994       67.09281       33.92215
H         23.10172       65.04645       34.62257
H         24.39638       65.47028       33.44067
H         24.05426       66.54049       34.85075
H         24.07734       67.48834       31.88579
H         22.57751       68.48390       32.01558
H         23.76736       68.49206       33.35324
N         21.29134       63.34516       32.67534
C         20.61368       62.26339       33.39631
C         21.14050       62.12404       34.81572
O         22.04944       62.83481       35.20780
C         20.84789       60.91789       32.66327
C         20.06001       60.85171       31.38817
N         20.67656       60.75675       30.19068
O         18.83893       60.86310       31.44454
H         21.97770       63.09311       31.95228
H         19.51956       62.46030       33.44230
H         20.50368       60.05058       33.26252
H         21.93684       60.77960       32.48600
H         21.70376       60.73954       30.13182
H         20.12277       60.70580       29.32252
N         20.61914       61.16413       35.63061
C         21.15382       60.82078       36.94407
C         22.59277       60.33854       36.80411
O         23.47650       60.86508       37.46481
C         20.30252       59.67672       37.54704
C         20.77764       59.25265       38.91249
C         20.59064       60.09159       40.02152
C         21.40410       58.00711       39.08761
C         21.01592       59.68590       41.29018
C         21.84140       57.60995       40.35322
C         21.64416       58.44700       41.46079
O         22.05213       58.07171       42.68957
H         19.82108       60.61517       35.27647
H         21.10198       61.70631       37.61601
H         20.34252       58.80795       36.85430
H         19.23374       59.97406       37.61601
H         20.10178       61.05089       39.90523
H         21.56519       57.34778       38.24317
H         20.85510       60.33482       42.14157
H         22.33061       56.65121       40.47110
H         22.49014       57.22330       42.84839
N         22.87605       59.31495       35.94919
C         24.19545       58.71728       35.76691
C         25.24218       59.75053       35.39069
O         26.28635       59.78568       36.02732
C         24.11591       57.54467       34.75383
C         23.72055       57.93785       33.31732
C         23.46563       56.71496       32.48387
O         22.47541       55.86564       32.82217
O         24.13317       56.49581       31.48621
H         22.09197       58.92626       35.40570
H         24.50629       58.25683       36.73218
H         23.35991       56.83171       35.15274
H         25.09218       57.01232       34.71986
H         24.53351       58.54083       32.85966
H         22.78783       58.53595       33.31006
N         25.01055       60.65746       34.40140
C         25.97133       61.69064       34.02290
C         26.31169       62.56141       35.22156
O         27.48563       62.71525       35.52991
C         25.44142       62.54680       32.84694
C         25.22101       61.69000       31.58404
C         24.88915       62.51696       30.37543
O         25.59284       62.44917       29.38214
O         23.80331       63.30757       30.35813
H         24.09834       60.62720       33.92496
H         26.91057       61.20821       33.66857
H         26.20580       63.32213       32.61770
H         24.49462       63.05799       33.12729
H         24.39749       60.96648       31.74555
H         26.14590       61.11507       31.37027
N         25.32906       63.11522       35.97982
C         25.60432       63.90070       37.16286
H         26.16043       64.82050       36.88786
H         24.64998       64.19006       37.65359
H         26.20084       63.30420       37.88689
H         24.35037       62.93968       35.73249
Ca        22.90295       64.11293       27.23256
O         22.65460       61.07096       27.76504
H         21.82357       60.76097       27.32504
H         23.30505       60.34030       27.61387

Ca 1.0



