%chk=holoCaM-CaMKII.loop2.water2.frame87.chk
%nprocshared=20
%mem=10GB
%nosave
#b3lyp/svp scf=(tight,noincore,xqc) Test 
#IOP(5/87=12) Density=Current Pop=(MK,readradii) iop(6/33=2) iop(6/42=6)

holoCaM-CaMKII.loop2.water2.frame87 

   -2  1 
C          5.99792       53.70493       78.04215
C          4.78116       53.79057       78.91903
O          3.80018       54.41162       78.54142
H          6.88043       54.10978       78.58072
H          6.19284       52.63868       77.79287
H          5.85640       54.26838       77.09673
N          4.78609       53.15149       80.11652
C          3.64299       53.06555       81.01912
C          3.18085       54.42534       81.54385
O          3.98636       55.17163       82.08108
C          4.02160       52.15054       82.19571
C          2.86462       51.92393       83.10608
O          2.95517       52.27244       84.40344
O          1.83846       51.42783       82.67077
H          5.64982       52.64631       80.37299
H          2.80768       52.57187       80.47298
H          4.86558       52.59504       82.76604
H          4.34370       51.16142       81.80480
N          1.85979       54.76676       81.46640
C          1.27849       56.01415       81.95551
C          0.19976       55.78875       83.02628
O         -0.45066       56.75905       83.39248
C          0.65845       56.74751       80.75905
H          1.21448       54.09831       81.03150
H          2.05752       56.67807       82.38883
H         -0.15415       56.13966       80.30453
H          0.23607       57.72586       81.07584
H          1.43419       56.94225       79.98891
N         -0.04169       54.56618       83.59403
C         -1.14419       54.34891       84.54952
C         -1.05336       53.09131       85.44447
O         -1.86606       52.98740       86.35349
C         -2.48529       54.30444       83.77844
C         -2.51314       53.16773       82.78167
O         -3.53970       52.91444       82.17219
O         -1.41240       52.41168       82.58127
H          0.57027       53.79681       83.31739
H         -1.13897       55.19654       85.27045
H         -2.66936       55.25720       83.24025
H         -3.31461       54.16336       84.50719
N         -0.12398       52.11151       85.27770
C          0.02917       50.96194       86.15155
C         -1.15059       50.01553       86.13882
O         -1.68951       49.73912       87.20068
H          0.54403       52.17248       84.51936
H          0.24240       51.31244       87.18492
H          0.91346       50.37756       85.81107
N         -1.55653       49.42217       84.97922
C         -2.55460       48.35281       84.92138
C         -1.94431       47.04583       84.39699
O         -2.69099       46.10772       84.15325
C         -3.82603       48.77880       84.14136
C         -3.64029       49.33541       82.72924
N         -4.91120       49.42378       82.02262
O         -2.71988       48.63110       81.96857
H         -1.09021       49.69548       84.10136
H         -2.93093       48.10372       85.93771
H         -4.34236       49.57707       84.71768
H         -4.51436       47.90721       84.10224
H         -5.49205       50.16226       82.47814
H         -4.72488       49.73463       81.04379
N         -0.59158       46.87432       84.28820
C          0.03997       45.62142       83.88737
C         -0.07611       45.28281       82.41188
O          0.46782       44.26017       82.01997
H          0.03798       47.62838       84.59185
H         -0.36091       44.79006       84.50689
H          1.12910       45.70056       84.09502
N         -0.73694       46.08285       81.53138
C         -0.82936       45.82574       80.09778
C         -0.27995       47.00891       79.31198
O          0.06691       48.02607       79.89603
C         -2.30917       45.54896       79.70639
C         -2.82317       44.26259       80.35507
O         -3.14443       46.60972       80.09337
H         -1.19363       46.92393       81.88393
H         -0.22357       44.93770       79.81486
H         -2.39908       45.38867       78.60801
H         -2.99551       47.35038       79.45055
H         -2.79914       44.33816       81.46244
H         -3.87115       44.07344       80.03756
H         -2.20073       43.39964       80.03544
N         -0.22664       46.94932       77.95390
C          0.13814       48.07502       77.10643
C         -1.14605       48.56918       76.47776
O         -1.83676       47.80080       75.82160
C          1.21896       47.66451       76.05795
C          2.56351       47.37780       76.77937
C          1.40167       48.76602       74.98894
C          3.66293       46.83335       75.86166
H         -0.54914       46.08874       77.48539
H          0.56027       48.91186       77.70476
H          0.87217       46.74511       75.53604
H          2.39991       46.62223       77.57653
H          2.93309       48.31107       77.26039
H          1.74388       49.71541       75.45116
H          2.12612       48.46111       74.20844
H          0.44994       48.95204       74.45033
H          4.57874       46.64028       76.45969
H          3.33624       45.88026       75.39571
H          3.93925       47.55621       75.06804
N         -1.51289       49.87026       76.63881
C         -2.70991       50.45392       76.05662
C         -2.33200       51.15025       74.77424
O         -1.16364       51.15148       74.42332
C         -3.35772       51.43594       77.05350
C         -3.79339       50.74603       78.31339
O         -4.96702       50.76396       78.64688
O         -2.89213       50.11649       79.08841
H         -0.86507       50.50821       77.11894
H         -3.44072       49.65918       75.78773
H         -4.24406       51.91546       76.58652
H         -2.63200       52.23780       77.31596
N         -3.27530       51.70994       73.97422
C         -2.93632       52.27405       72.67732
C         -1.98826       53.47049       72.78788
O         -0.95807       53.41797       72.13160
C         -4.20272       52.58295       71.85462
C         -3.85118       53.03526       70.45843
C         -4.24109       54.30636       70.00817
C         -3.12637       52.19225       69.59402
C         -3.90709       54.72852       68.71840
C         -2.79122       52.62038       68.30832
C         -3.18111       53.88759       67.87028
H         -4.26492       51.66655       74.26351
H         -2.40740       51.47528       72.11128
H         -4.82856       53.33903       72.35917
H         -4.81637       51.65897       71.77683
H         -4.80000       54.97108       70.65510
H         -2.81629       51.20459       69.91086
H         -4.20999       55.70929       68.37749
H         -2.22884       51.96803       67.65270
H         -2.92112       54.21690       66.87333
N         -2.21971       54.56575       73.58538
C         -1.29068       55.68852       73.71478
C          0.13261       55.24667       73.98776
O          1.06419       55.74603       73.37272
C         -1.81126       56.44311       74.95111
C         -3.29477       56.20271       74.86432
C         -3.34786       54.72692       74.48347
H         -1.35537       56.32677       72.80555
H         -1.48180       55.93485       75.88726
H         -1.49272       57.50583       75.01058
H         -3.87193       56.46467       75.77688
H         -3.67789       56.80206       74.00788
H         -3.19286       54.06640       75.36533
H         -4.33331       54.53661       74.02911
N          0.34392       54.29206       74.92969
C          1.64662       53.82046       75.37436
C          2.40094       53.20581       74.20544
O          3.48875       53.66646       73.88917
C          1.45516       52.81569       76.54169
C          0.69086       53.45790       77.73467
C          0.34179       52.49424       78.83078
O         -0.46337       52.90183       79.82860
O          0.72557       51.33865       78.80857
H         -0.49784       53.87703       75.35033
H          2.23059       54.68098       75.77207
H          2.44437       52.44786       76.89170
H          0.87107       51.94732       76.17039
H         -0.28258       53.86438       77.40809
H          1.26998       54.30512       78.15601
N          1.85539       52.18727       73.48754
C          2.49102       51.60904       72.32489
H          3.46555       51.15867       72.60340
H          1.83891       50.81547       71.89799
H          2.64139       52.38948       71.54865
H          0.93906       51.82300       73.75615
Ca        -1.50127       50.45534       81.52394
O          1.11886       48.79150       82.61365
H          1.38260       48.03035       82.04160
H          1.79009       48.79055       83.34119
O          2.86134       49.48919       80.22633
H          2.64040       49.87227       79.34273
H          3.58876       48.84660       80.03571

Ca 1.0



