%chk=holoCaM-CaMKII.loop4.water2.frame21.chk
%nprocshared=20
%mem=10GB
%nosave
#b3lyp/svp scf=(tight,noincore,xqc) Test 
#IOP(5/87=12) Density=Current Pop=(MK,readradii) iop(6/33=2) iop(6/42=6)

holoCaM-CaMKII.loop4.water2.frame21 

   -3  1 
C         27.18984       37.62826       37.13776
C         26.58349       37.65442       38.51219
O         27.08933       38.35935       39.36967
H         28.23953       37.27239       37.20288
H         26.63463       36.94417       36.46037
H         27.17277       38.64695       36.69896
N         25.48529       36.90317       38.78972
C         24.84636       36.83654       40.10177
C         25.79750       36.23632       41.13107
O         26.27613       35.13331       40.90484
C         23.56650       35.98608       39.96742
C         22.86498       35.77278       41.26877
O         22.47551       36.81560       42.02257
O         22.63939       34.63644       41.64354
H         25.08113       36.34811       38.01831
H         24.53966       37.85871       40.41916
H         23.81736       34.99168       39.53405
H         22.87065       36.49689       39.26731
N         26.09892       36.90173       42.29306
C         27.03178       36.38075       43.29862
C         26.34349       35.98903       44.60473
O         27.01405       35.39261       45.43600
C         28.24858       37.35434       43.51649
C         27.98238       38.64110       44.35086
C         28.81435       37.78537       42.15138
C         27.86407       38.43121       45.86424
H         25.66163       37.81361       42.45769
H         27.46365       35.43470       42.90690
H         29.05551       36.79324       44.03728
H         27.10149       39.17707       43.96243
H         28.86129       39.31494       44.24173
H         29.74480       38.37840       42.28144
H         29.05006       36.90345       41.52088
H         28.08377       38.43289       41.62482
H         28.77540       37.92399       46.24918
H         27.78201       39.41821       46.36672
H         26.97360       37.85460       46.15593
N         25.02937       36.27904       44.86774
C         24.34955       35.89949       46.11244
C         23.19491       34.92614       45.87086
O         22.50604       34.58089       46.82150
C         23.89858       37.14997       46.90265
C         22.85072       38.01718       46.25923
O         22.39822       39.08975       46.93317
O         22.39261       37.76518       45.15727
H         24.47811       36.78776       44.16415
H         25.05437       35.36915       46.78931
H         24.78838       37.77952       47.11473
H         23.49276       36.81273       47.88172
N         22.98112       34.37320       44.64475
C         22.01562       33.31714       44.38844
C         20.56660       33.74310       44.26087
O         19.77352       32.86773       43.94077
H         23.62823       34.59974       43.87952
H         22.12116       32.51667       45.15215
H         22.27510       32.85671       43.41140
N         20.11330       35.01844       44.46304
C         18.69638       35.34478       44.26530
C         18.27293       35.22153       42.79076
O         17.07629       35.18316       42.54168
C         18.30107       36.71280       44.88758
C         18.99369       37.89365       44.27990
O         18.75155       39.02676       44.66262
O         19.86951       37.69196       43.29435
H         20.76552       35.74598       44.78454
H         18.11282       34.59078       44.83974
H         18.53542       36.69548       45.97314
H         17.20458       36.85582       44.77059
N         19.18574       35.14272       41.76955
C         18.83364       34.86995       40.37811
C         19.09148       36.01967       39.41799
O         18.83774       35.83535       38.23601
H         20.18546       35.24613       41.97939
H         17.75613       34.61634       40.28471
H         19.41148       33.98067       40.04583
N         19.50860       37.24571       39.84377
C         19.56082       38.42679       38.98341
C         20.95380       39.12687       38.99334
O         21.82783       38.85271       40.05230
C         18.32866       39.32667       39.28078
C         18.15523       39.79619       40.73423
C         16.85719       40.54119       40.95680
N         16.51601       40.94042       42.20348
O         16.10001       40.77338       40.02472
H         19.68276       37.37796       40.84306
H         19.41020       38.14656       37.91757
H         17.43064       38.71741       39.02989
H         18.32404       40.20559       38.60100
H         18.99584       40.45848       41.01797
H         18.12899       38.91012       41.40090
H         17.12752       40.73709       43.00683
H         15.62906       41.43881       42.36992
N         20.92890       40.55096       38.63317
C         22.24798       41.22043       38.64500
C         21.98686       42.70458       38.81369
O         21.29606       43.27589       37.98062
C         23.09634       40.94585       37.35760
C         24.48176       41.60933       37.47786
C         23.30931       39.44754       37.08259
H         20.46857       40.67884       37.70159
H         22.84183       40.88300       39.51966
H         22.57385       41.37663       36.47528
H         25.07246       41.44409       36.55179
H         24.39377       42.70468       37.62924
H         25.04646       41.17410       38.32999
H         23.80139       38.95561       37.94766
H         22.34906       38.94015       36.86367
H         23.94752       39.30671       36.18414
N         22.51813       43.39584       39.86572
C         22.30220       44.82562       40.06931
C         23.58846       45.59043       39.80980
O         24.58693       44.98035       39.45632
C         21.67087       45.13095       41.45658
C         22.58516       45.01796       42.65686
N         23.04845       43.82943       43.09447
O         22.87714       46.03118       43.27436
H         23.13927       42.89823       40.51463
H         21.56841       45.19922       39.32333
H         20.76447       44.50744       41.61128
H         21.31968       46.18440       41.42496
H         22.77440       42.95251       42.64091
H         23.65922       43.78892       43.92352
N         23.62422       46.94635       39.93316
C         24.79916       47.75637       39.62230
C         26.01669       47.32774       40.42274
O         27.10555       47.30319       39.86638
C         24.49012       49.24585       39.86992
C         25.61101       50.14649       39.41009
C         25.97928       50.18317       38.05329
C         26.29055       50.96390       40.32714
C         27.01105       51.02045       37.62311
C         27.32269       51.80188       39.89398
C         27.68579       51.83274       38.53921
O         28.67654       52.63817       38.10698
H         22.76731       47.42968       40.24026
H         25.02515       47.62077       38.54179
H         24.28092       49.39082       40.95336
H         23.57503       49.53260       39.30721
H         25.46609       49.56719       37.32555
H         26.02323       50.95322       41.37645
H         27.28366       51.03901       36.57525
H         27.83797       52.42715       40.61171
H         29.16510       53.21964       38.70661
N         25.89904       46.93757       41.72193
C         27.02209       46.42921       42.50288
C         27.60436       45.19385       41.83116
O         28.79252       45.16875       41.54148
C         26.58094       46.04740       43.94263
C         25.95678       47.17810       44.78429
C         26.89755       48.31519       45.06723
O         27.31467       49.01909       44.16216
O         27.24988       48.59139       46.33746
H         24.96533       46.96922       42.15074
H         27.81150       47.20738       42.56826
H         27.46066       45.64752       44.49502
H         25.82534       45.23435       43.88744
H         25.65024       46.73149       45.75580
H         25.03965       47.57484       44.30400
N         26.80507       44.12093       41.56948
C         27.29145       42.85907       41.01030
C         27.70647       42.98092       39.54314
O         28.20347       42.00345       39.00008
C         26.20443       41.76085       41.14181
C         25.74256       41.56321       42.60106
C         24.62298       40.56825       42.72577
O         24.68299       39.59579       43.65116
O         23.61185       40.68878       42.05529
H         25.81117       44.20477       41.82300
H         28.17053       42.53087       41.60892
H         26.59499       40.79430       40.75378
H         25.33205       42.05996       40.52436
H         25.35290       42.50850       43.00618
H         26.59969       41.27014       43.24032
N         27.51813       44.12491       38.82535
C         27.87932       44.24114       37.42954
H         28.97021       44.08115       37.30168
H         27.31528       43.49700       36.82832
H         27.62437       45.25815       37.05845
H         27.08969       44.94466       39.26240
Ca        20.91543       39.20370       42.06844
O         20.15816       42.10516       43.14110
H         20.48284       41.51854       43.86900
H         19.17756       41.97577       43.14020
O         22.65059       41.92417       45.65768
H         22.34259       42.86294       45.71362
H         21.88987       41.40293       46.01474

Ca 1.0



