%chk=holoCaM-CaMKII.loop4.water2.frame273.chk
%nprocshared=20
%mem=10GB
%nosave
#b3lyp/svp scf=(tight,noincore,xqc) Test 
#IOP(5/87=12) Density=Current Pop=(MK,readradii) iop(6/33=2) iop(6/42=6)

holoCaM-CaMKII.loop4.water2.frame273 

   -3  1 
C         65.66522       23.59869       80.96016
C         65.47251       22.23850       81.56138
O         64.36148       21.73138       81.58116
H         66.39766       23.53337       80.12618
H         64.71014       24.00324       80.56706
H         66.06464       24.28848       81.73322
N         66.55236       21.57323       82.04259
C         66.49889       20.22831       82.60334
C         65.83604       20.25847       83.99046
O         66.41179       20.80599       84.92003
C         67.95257       19.72247       82.65851
C         68.23146       18.35416       83.16928
O         69.38997       18.08468       83.42186
O         67.29147       17.42681       83.40249
H         67.47006       22.03724       81.94054
H         65.93326       19.58158       81.89650
H         68.51414       20.42251       83.31369
H         68.39968       19.77526       81.63999
N         64.59053       19.73336       84.17396
C         63.82204       19.79810       85.42220
C         64.22973       18.69609       86.41670
O         64.35964       18.99996       87.59417
C         62.28699       19.80318       85.09391
C         61.96351       21.04532       84.20223
C         61.43252       19.82424       86.37673
C         60.49394       21.21903       83.81565
H         64.10489       19.38427       83.33686
H         63.99698       20.78128       85.91732
H         62.02809       18.87435       84.53880
H         62.52998       20.97111       83.25366
H         62.28671       21.97651       84.71779
H         61.63033       20.74144       86.97050
H         60.35146       19.78030       86.12951
H         61.63735       18.93163       87.00217
H         59.86666       21.44489       84.69991
H         60.40341       22.07592       83.11300
H         60.10191       20.31363       83.32059
N         64.44647       17.40609       86.02073
C         64.74301       16.28680       86.92478
C         66.22015       15.86736       86.94837
O         66.53819       14.90407       87.63249
C         63.81475       15.09076       86.59026
C         64.03909       14.43999       85.24384
O         63.26628       13.39804       84.88387
O         64.91485       14.82136       84.48407
H         64.37547       17.20147       85.02630
H         64.50805       16.58331       87.97055
H         62.76012       15.43764       86.64115
H         63.94937       14.30237       87.36189
N         67.18639       16.58073       86.30584
C         68.61531       16.30080       86.42026
C         69.07195       15.00740       85.76278
O         69.68507       14.18581       86.42818
H         66.91386       17.42830       85.79207
H         68.90641       16.31419       87.49392
H         69.17057       17.12461       85.92399
N         68.85266       14.79639       84.43575
C         69.35069       13.66661       83.65377
C         70.17282       14.13507       82.43736
O         70.50066       13.31669       81.58972
C         68.16510       12.76315       83.24713
C         67.09414       13.37980       82.38358
O         67.15848       14.53542       81.99992
O         66.03153       12.63049       82.03706
H         68.29885       15.48817       83.93594
H         70.01474       13.02264       84.27151
H         67.67815       12.40921       84.18161
H         68.56377       11.87180       82.71660
N         70.59391       15.42900       82.32516
C         71.41640       15.96260       81.24695
C         70.70045       16.23082       79.93294
O         71.35259       16.77231       79.05097
H         70.41946       16.06102       83.10884
H         72.30324       15.31215       81.08700
H         71.79278       16.95671       81.57610
N         69.39530       15.89973       79.70455
C         68.71075       16.17735       78.43801
C         67.40175       16.92559       78.66049
O         66.96888       17.07319       79.79553
C         68.45602       14.84186       77.70777
C         69.78209       14.22670       77.22365
C         69.59089       12.86375       76.61680
N         69.22026       11.81541       77.38849
O         69.80562       12.69449       75.42586
H         68.87171       15.39887       80.43166
H         69.33523       16.82601       77.78434
H         67.81545       15.00069       76.81243
H         67.92093       14.15275       78.39804
H         70.50945       14.12240       78.05548
H         70.21771       14.91617       76.46617
H         69.06866       11.93503       78.40092
H         69.11301       10.87558       76.97904
N         66.72799       17.44617       77.58821
C         65.43863       18.12951       77.68160
C         64.44884       17.41691       76.76511
O         64.74551       17.28501       75.58504
C         65.55075       19.63678       77.29306
C         64.21145       20.36108       77.54656
C         66.64535       20.35846       78.09626
H         67.15483       17.35874       76.65274
H         65.07874       18.10530       78.72198
H         65.80957       19.72612       76.21482
H         63.94481       20.31614       78.62542
H         64.27970       21.43087       77.25457
H         63.38872       19.90585       76.96040
H         66.44323       20.30042       79.18724
H         67.64055       19.91530       77.88702
H         66.68871       21.43082       77.80241
N         63.23660       16.97787       77.22204
C         62.23648       16.34333       76.35575
C         61.09471       17.31023       76.09113
O         61.20517       18.45262       76.48987
C         61.75595       14.97672       76.90828
C         60.66096       15.03452       77.95283
N         60.86865       15.54173       79.18411
O         59.55619       14.59126       77.67288
H         62.98742       17.17628       78.19762
H         62.69557       16.11657       75.36840
H         62.61963       14.37483       77.26264
H         61.32394       14.42490       76.04445
H         61.79008       15.89125       79.46636
H         60.09707       15.55872       79.86799
N         59.98275       16.94539       75.39521
C         58.92267       17.88966       75.04380
C         58.24099       18.51995       76.25583
O         58.15144       19.73857       76.30227
C         57.86399       17.20310       74.15851
C         56.89493       18.21257       73.58691
C         57.36101       19.22272       72.72523
C         55.52808       18.15927       73.90243
C         56.47882       20.16386       72.19353
C         54.64500       19.10352       73.36663
C         55.11921       20.10910       72.50995
O         54.28089       21.02455       71.98447
H         59.90968       15.97341       75.06029
H         59.39261       18.69669       74.44062
H         57.33708       16.42546       74.75519
H         58.36159       16.69504       73.30453
H         58.40921       19.28347       72.46092
H         55.14619       17.39195       74.56414
H         56.85481       20.93546       71.53318
H         53.59342       19.05318       73.61780
H         53.33184       21.02124       72.17208
N         57.72585       17.75449       77.26228
C         57.01823       18.30643       78.42507
C         57.83544       19.39004       79.09446
O         57.32521       20.47860       79.32067
C         56.68933       17.20231       79.45922
C         55.65682       16.19624       78.92813
C         55.30995       15.17173       79.97128
O         54.77105       15.55492       81.14514
O         55.49607       13.98527       79.75301
H         57.87347       16.73646       77.20663
H         56.05939       18.76801       78.10079
H         56.25419       17.68514       80.36368
H         57.62051       16.67450       79.76714
H         56.04807       15.68251       78.02557
H         54.72749       16.73766       78.64946
N         59.13508       19.16338       79.39467
C         60.01248       20.15639       79.99977
C         60.09343       21.40705       79.13413
O         59.85100       22.49583       79.63489
C         61.40054       19.53759       80.19037
C         61.36361       18.34490       81.17027
C         62.71906       17.74261       81.31512
O         63.00370       16.94365       82.34276
O         63.62293       18.05238       80.56277
H         59.52051       18.24171       79.13854
H         59.62638       20.44443       81.00090
H         62.09390       20.30252       80.60860
H         61.79236       19.20883       79.20309
H         60.64468       17.55458       80.88924
H         61.05100       18.71771       82.16033
N         60.38811       21.30786       77.81085
C         60.44208       22.42045       76.88762
H         61.43614       22.43786       76.39312
H         59.66473       22.27838       76.10573
H         60.26923       23.39464       77.38729
H         60.54694       20.38167       77.42085
Ca        65.16073       17.23869       82.83132
O         62.75206       14.28354       81.67351
H         61.96013       13.86558       81.25378
H         62.44419       14.53065       82.58072
O         64.96923       14.09864       79.46329
H         64.07252       13.68576       79.38900
H         65.59164       13.32921       79.49109

Ca 1.0



