%chk=holoCaM.loop2.water1.frame320.chk
%nprocshared=20
%mem=10GB
%nosave
#b3lyp/svp scf=(tight,noincore,xqc) Test 
#IOP(5/87=12) Density=Current Pop=(MK,readradii) iop(6/33=2) iop(6/42=6)

holoCaM.loop2.water1.frame320 

   -2  1 
C          0.96295       28.47683       87.94924
C          0.09768       27.90564       89.03382
O         -0.27327       28.62344       89.94895
H          1.92428       27.92455       87.90362
H          0.44139       28.37648       86.97282
H          1.16893       29.55328       88.12922
N         -0.28456       26.60285       88.97299
C         -1.19898       25.98659       89.92723
C         -0.62985       25.95825       91.34082
O          0.39061       25.32177       91.56331
C         -1.53057       24.55727       89.45507
C         -2.48120       23.86029       90.37539
O         -2.11790       22.70160       90.95788
O         -3.58069       24.33853       90.59996
H          0.05193       26.04313       88.17306
H         -2.14658       26.56890       89.91892
H         -0.59477       23.96033       89.38267
H         -1.99201       24.60574       88.44493
N         -1.27430       26.61591       92.35032
C         -0.87311       26.57246       93.74922
C         -2.05573       26.15536       94.63133
O         -2.30432       26.80583       95.63631
C         -0.33585       27.95410       94.15336
H         -2.09852       27.17269       92.11804
H         -0.05769       25.83102       93.88839
H          0.52337       28.23277       93.50774
H         -1.12840       28.72645       94.03569
H          0.00713       27.94939       95.21000
N         -2.83231       25.07813       94.30037
C         -3.96646       24.59226       95.11423
C         -4.72058       23.35930       94.56567
O         -5.56965       22.85740       95.29101
C         -5.00810       25.69648       95.43070
C         -5.60912       26.40494       94.25455
O         -5.19226       26.22088       92.98757
O         -6.48330       27.22994       94.46687
H         -2.56312       24.59984       93.43792
H         -3.54407       24.26875       96.09122
H         -4.57382       26.47578       96.08454
H         -5.83333       25.24617       96.02456
N         -4.48218       22.79057       93.34977
C         -5.12895       21.57499       92.88269
C         -6.59565       21.69288       92.51206
O         -7.13166       20.67619       92.09176
H         -3.76395       23.16170       92.73587
H         -4.99468       20.77624       93.64424
H         -4.60936       21.24104       91.95730
N         -7.32544       22.84780       92.60478
C         -8.73955       22.87785       92.21777
C         -8.96628       22.77464       90.69885
O        -10.11873       22.75656       90.28844
C         -9.49083       24.07944       92.83441
C         -9.15930       25.44391       92.30679
N         -9.87814       26.50267       92.74515
O         -8.27744       25.60320       91.47982
H         -6.89418       23.69663       92.99732
H         -9.23000       22.00025       92.69642
H         -9.33797       24.08074       93.93583
H        -10.57563       23.92400       92.64607
H        -10.63019       26.37739       93.43757
H         -9.71151       27.44631       92.38425
N         -7.93302       22.65956       89.80959
C         -8.11608       22.43859       88.38030
C         -8.42002       23.68315       87.56403
O         -8.51430       23.54772       86.35240
H         -6.96627       22.61806       90.15440
H         -8.88694       21.65311       88.21509
H         -7.16149       22.04126       87.97323
N         -8.57895       24.91624       88.12645
C         -8.85102       26.12956       87.35559
C         -7.88907       27.24747       87.73357
O         -7.74394       27.54030       88.91191
C        -10.30508       26.60729       87.57101
C        -11.32599       25.58197       87.05735
O        -10.55867       26.94721       88.91205
H         -8.53821       25.00146       89.14687
H         -8.76166       25.93517       86.26316
H        -10.44780       27.52578       86.95810
H        -10.55973       26.11084       89.44472
H        -11.14108       25.36386       85.98268
H        -11.25852       24.63288       87.62928
H        -12.35286       25.99045       87.15838
N         -7.26404       27.97488       86.76280
C         -6.41995       29.14090       87.03670
C         -7.21375       30.18603       87.81897
O         -8.28886       30.58105       87.39042
C         -5.85573       29.74972       85.70875
C         -4.90796       28.73040       85.01388
C         -5.10319       31.07444       85.97489
C         -4.39960       29.18616       83.64374
H         -7.44596       27.71754       85.78165
H         -5.54511       28.82423       87.64397
H         -6.71413       29.97813       85.03860
H         -5.43704       27.77081       84.84779
H         -4.03395       28.52343       85.67085
H         -4.22326       30.90092       86.62690
H         -4.76397       31.54551       85.03218
H         -5.76502       31.82442       86.45297
H         -3.77070       30.09559       83.71686
H         -3.76808       28.38630       83.20290
H         -5.25510       29.37941       82.96285
N         -6.68116       30.71598       88.95597
C         -7.29988       31.75498       89.77484
C         -6.56695       33.06724       89.59992
O         -5.62564       33.12520       88.82977
C         -7.30008       31.27436       91.23863
C         -8.39305       30.26536       91.40042
O         -8.15663       28.95562       91.56712
O         -9.55312       30.64027       91.34135
H         -5.74294       30.40253       89.24044
H         -8.33891       31.97376       89.44099
H         -7.50962       32.09453       91.95841
H         -6.29932       30.85880       91.49631
N         -7.00533       34.19609       90.22610
C         -6.43605       35.51833       89.97841
C         -4.93386       35.58218       90.27011
O         -4.21284       35.89918       89.33407
C         -7.25321       36.61098       90.70982
C         -6.58791       37.96492       90.64036
C         -6.33607       38.58664       89.40534
C         -6.19179       38.60810       91.82653
C         -5.69274       39.82767       89.36149
C         -5.55133       39.84796       91.77765
C         -5.30023       40.45707       90.54626
H         -7.81717       34.11953       90.85864
H         -6.55391       35.73727       88.89202
H         -7.41331       36.33385       91.76497
H         -8.27003       36.66451       90.26360
H         -6.62921       38.10965       88.47894
H         -6.37094       38.14765       92.79048
H         -5.49503       40.30038       88.40847
H         -5.24651       40.33357       92.69565
H         -4.80027       41.41599       90.51099
N         -4.36069       35.31116       91.48632
C         -2.91866       35.34850       91.72603
C         -2.11747       34.58927       90.68717
O         -1.09683       35.07514       90.22123
C         -2.76985       34.63384       93.07813
C         -4.03255       35.04557       93.78483
C         -5.07129       34.89197       92.67895
H         -2.58461       36.40768       91.79867
H         -2.84391       33.52923       92.94480
H         -1.82175       34.85664       93.61221
H         -4.26530       34.48957       94.71742
H         -3.93307       36.12900       94.02753
H         -5.40227       33.83844       92.54450
H         -5.91670       35.53599       92.96066
N         -2.55144       33.36484       90.29571
C         -1.83758       32.47156       89.39418
C         -1.64089       33.12372       88.03628
O         -0.50577       33.24133       87.59751
C         -2.59695       31.12772       89.28255
C         -2.76721       30.46641       90.67221
C         -3.52597       29.18124       90.65666
O         -3.88492       28.65332       89.61677
O         -3.85413       28.62868       91.83560
H         -3.45445       33.06073       90.68170
H         -0.83902       32.24091       89.82928
H         -2.03655       30.44061       88.61144
H         -3.60032       31.30658       88.84620
H         -3.34596       31.11628       91.35219
H         -1.77773       30.29485       91.14359
N         -2.70393       33.60586       87.33552
C         -2.60008       34.28257       86.05999
H         -2.98992       35.31775       86.16620
H         -1.55517       34.33614       85.69190
H         -3.21716       33.74725       85.30868
H         -3.64097       33.51857       87.73366
Ca        -6.35121       27.62911       91.66823
O         -5.61079       24.63161       88.69263
H         -5.26983       23.70326       88.63801
H         -4.94314       25.17086       88.20033

Ca 1.0



