%chk=holoCaM.loop3.water2.frame279.chk
%nprocshared=20
%mem=10GB
%nosave
#b3lyp/svp scf=(tight,noincore,xqc) Test 
#IOP(5/87=12) Density=Current Pop=(MK,readradii) iop(6/33=2) iop(6/42=6)

holoCaM.loop3.water2.frame279 

   0  1 
C         47.75038       91.19732       50.31405
C         48.92050       90.26460       50.28553
O         49.33725       89.82137       51.34552
H         46.89313       90.69134       50.80534
H         48.01780       92.10721       50.89097
H         47.44787       91.49745       49.28946
N         49.52255       89.93870       49.10667
C         50.65148       89.02778       49.02529
C         51.89332       89.81921       48.65798
O         52.01529       90.28254       47.53229
C         50.33724       87.93118       47.99692
C         51.41778       86.90807       47.85843
O         51.30754       86.05709       47.00025
O         52.49959       86.90746       48.65737
H         49.18376       90.37198       48.23364
H         50.81837       88.54121       50.01281
H         50.18033       88.40865       47.00460
H         49.39870       87.40502       48.27900
N         52.82468       90.07695       49.61561
C         54.00397       90.90281       49.39342
C         55.05949       90.16337       48.57026
O         55.59817       90.73695       47.63540
C         54.60073       91.35241       50.75176
C         55.58689       92.51982       50.55747
C         56.30648       92.97490       51.83623
C         55.37266       93.45041       52.96063
N         56.15219       93.97724       54.08256
H         52.62673       89.75214       50.57283
H         53.67920       91.83952       48.88615
H         55.08797       90.49712       51.26500
H         53.77427       91.72396       51.39753
H         55.03249       93.38516       50.12896
H         56.37288       92.22164       49.83289
H         56.97004       93.82049       51.54972
H         56.94216       92.14648       52.21518
H         54.75084       92.60086       53.31850
H         54.69759       94.24955       52.58211
H         55.50508       94.26075       54.85311
H         56.80959       93.24761       54.44276
H         56.69666       94.81658       53.77574
N         55.40116       88.87769       48.88192
C         56.46392       88.10390       48.23233
C         55.96577       87.24449       47.07011
O         56.78215       86.54545       46.48503
C         57.25760       87.27675       49.28247
C         56.36536       86.43760       50.15299
O         56.35064       86.63542       51.35785
O         55.48153       85.57290       49.62399
H         54.84418       88.40727       49.60239
H         57.20102       88.79613       47.76895
H         57.80722       87.98349       49.94492
H         58.01433       86.63766       48.78060
N         54.68889       87.32597       46.59591
C         54.27444       86.70952       45.34062
C         54.14051       85.19429       45.32017
O         53.88184       84.67837       44.24160
H         54.02570       87.97175       47.04279
H         55.00187       87.01534       44.55601
H         53.28639       87.12419       45.04817
N         54.28496       84.40479       46.42459
C         54.20726       82.93628       46.36409
C         52.78676       82.37527       46.15023
O         52.62388       81.16496       46.20382
C         54.87460       82.31518       47.61564
C         54.05127       82.35799       48.87701
N         53.84070       81.22717       49.59212
O         53.58928       83.41357       49.26924
H         54.53363       84.85499       47.31571
H         54.85790       82.60434       45.52472
H         55.84101       82.83653       47.78985
H         55.11749       81.25268       47.39746
H         54.22819       80.32362       49.28371
H         53.30117       81.24853       50.46870
N         51.71796       83.18517       45.90104
C         50.33933       82.73416       45.77677
C         49.78005       82.29434       47.11061
O         49.22529       81.20917       47.19405
H         51.86951       84.18492       45.77009
H         50.24673       81.94757       44.99665
H         49.72126       83.60138       45.45408
N         49.85889       83.13342       48.18323
C         49.34876       82.87645       49.53822
C         49.53253       84.11529       50.43223
O         50.25274       85.03958       50.06913
C         50.12297       81.72262       50.22755
C         49.87256       80.31824       49.73484
C         50.83701       79.65028       48.96089
C         48.69557       79.63865       50.09220
C         50.62869       78.33427       48.54434
C         48.49750       78.31119       49.69194
C         49.46527       77.65557       48.91538
O         49.29350       76.37585       48.52671
H         50.30551       84.03996       47.99485
H         48.25706       82.66930       49.47990
H         49.91080       81.69831       51.31914
H         51.19410       81.97434       50.11813
H         51.74368       80.15155       48.66472
H         47.94636       80.12549       50.70420
H         51.37871       77.83961       47.93984
H         47.59690       77.79034       49.99204
H         48.51500       75.85969       48.77924
N         48.88751       84.20006       51.63000
C         49.02313       85.32539       52.55683
C         49.36438       84.78566       53.93923
O         48.65565       83.90557       54.41457
C         47.70584       86.15650       52.62377
C         47.26093       86.61031       51.20792
C         47.91095       87.38402       53.54384
C         45.90352       87.31932       51.19622
H         48.23289       83.44155       51.88396
H         49.81907       86.02674       52.21407
H         46.90324       85.51320       53.04742
H         47.14898       85.71691       50.55851
H         48.02953       87.27371       50.75381
H         46.98282       87.97433       53.66445
H         48.21234       87.07624       54.56311
H         48.70251       88.04650       53.13426
H         45.61781       87.55454       50.14983
H         45.12502       86.65891       51.63507
H         45.93119       88.27575       51.75475
N         50.37725       85.31886       54.67854
C         50.68827       84.89093       56.04060
C         50.26639       85.95394       57.04028
O         49.79407       87.00614       56.63749
C         52.19565       84.60814       56.16350
O         52.56574       83.58753       55.28093
H         50.90740       86.11190       54.28957
H         50.12557       83.96782       56.30135
H         52.43757       84.29216       57.20189
H         52.76374       85.53701       55.92378
H         53.53561       83.43647       55.42984
N         50.39670       85.73232       58.37888
C         50.06614       86.72115       59.40414
C         50.92305       87.95626       59.24748
O         50.39897       89.05928       59.30035
C         50.29133       86.13848       60.80058
H         50.76466       84.81767       58.68471
H         48.99026       86.99931       59.33380
H         51.35221       85.83963       60.93977
H         50.02644       86.89465       61.57150
H         49.64125       85.25032       60.94574
N         52.25339       87.82770       58.98444
C         53.14068       88.95234       58.71918
C         52.55099       89.86262       57.65974
O         52.48828       91.06714       57.86213
C         54.50307       88.42077       58.23344
H         52.63749       86.87326       58.89888
H         53.30590       89.53600       59.65054
H         55.20216       89.25832       58.02547
H         54.96003       87.76549       59.00528
H         54.38679       87.82312       57.30131
N         52.11256       89.33380       56.49003
C         51.66923       90.13780       55.35766
C         50.31176       90.78701       55.57171
O         50.05291       91.80296       54.94173
C         51.68681       89.27693       54.07946
C         53.11499       88.74262       53.87041
C         53.27452       87.87906       52.67762
O         54.07938       88.20638       51.82913
O         52.66753       86.68371       52.57430
H         52.17457       88.31041       56.38524
H         52.41609       90.95004       55.20261
H         51.39358       89.89473       53.20251
H         50.96503       88.43879       54.17933
H         53.46358       88.12536       54.71966
H         53.80229       89.61352       53.78255
N         49.38306       90.24537       56.40910
C         48.06988       90.81666       56.63481
H         47.29187       90.09083       56.31601
H         47.94212       91.02285       57.71816
H         47.91494       91.76404       56.07742
H         49.59935       89.37658       56.90708
Ca        53.60882       85.57633       50.87478
O         52.19891       83.24093       52.13491
H         52.04368       82.40736       52.64522
H         51.91167       83.96574       52.74261
O         54.91625       83.85703       53.04458
H         55.70922       83.98470       52.46634
H         54.73356       84.75488       53.42066

Ca 1.0



