%chk=holoCaM.loop2.water2.frame436.chk
%nprocshared=20
%mem=10GB
%nosave
#b3lyp/svp scf=(tight,noincore,xqc) Test 
#IOP(5/87=12) Density=Current Pop=(MK,readradii) iop(6/33=2) iop(6/42=6)

holoCaM.loop2.water2.frame436 

   -2  1 
C        104.85563      109.82353       51.80591
C        104.91713      110.31385       50.38512
O        105.40094      109.60385       49.51587
H        105.43947      110.51021       52.45774
H        103.80246      109.81264       52.15769
H        105.28042      108.80254       51.90183
N        104.44825      111.55606       50.09314
C        104.51239      112.18569       48.77397
C        105.95532      112.27096       48.28378
O        106.81660      112.72409       49.02422
C        103.81613      113.56294       48.84956
C        104.13107      114.45141       47.68553
O        104.66547      115.52516       47.90691
O        104.02569      114.04940       46.40845
H        104.04448      112.09577       50.87573
H        103.94208      111.59031       48.03877
H        104.16314      114.10150       49.75956
H        102.71958      113.40567       48.94351
N        106.27126      111.84570       47.01972
C        107.63034      111.76329       46.49725
C        107.91108      112.71083       45.33065
O        109.05069      112.71585       44.88479
C        107.87863      110.31453       46.04889
H        105.51279      111.52929       46.39945
H        108.36042      112.01460       47.29602
H        107.17545      110.03922       45.23035
H        108.91691      110.18089       45.67829
H        107.71575      109.61536       46.89637
N        106.96189      113.52506       44.77312
C        107.23914      114.40930       43.63316
C        106.96149      115.88659       43.91485
O        107.35323      116.68815       43.07728
C        106.45619      113.92367       42.38682
C        104.98036      113.88634       42.66233
O        104.36515      112.70076       42.82191
O        104.38261      114.91393       42.93291
H        106.00350      113.48600       45.13359
H        108.31943      114.35724       43.37541
H        106.80129      112.89365       42.15194
H        106.66571      114.56357       41.50184
N        106.29214      116.33712       45.02263
C        106.08665      117.75979       45.28805
C        104.64368      118.22839       45.18713
O        104.44725      119.43311       45.26329
H        105.92346      115.66562       45.70448
H        106.65113      118.37211       44.55429
H        106.49410      118.00992       46.29139
N        103.58840      117.37833       45.01237
C        102.21148      117.84318       44.80431
C        101.30444      117.59661       46.00764
O        100.11843      117.88254       45.91295
C        101.63676      117.24114       43.49770
C        101.45365      115.74096       43.48214
N        100.95492      115.13842       42.37921
O        101.74900      115.06279       44.45160
H        103.76233      116.36588       45.02539
H        102.19723      118.94530       44.65508
H        102.31051      117.51877       42.65799
H        100.64412      117.70165       43.30097
H        100.69644      115.68998       41.54874
H        100.82674      114.11748       42.35298
N        101.79971      117.15152       47.19718
C        100.99836      117.01228       48.40442
C        100.03769      115.83876       48.40967
O         99.37276      115.66727       49.42259
H        102.80917      116.99728       47.29153
H        100.44870      117.96141       48.59187
H        101.68831      116.85215       49.26066
N         99.90066      114.98700       47.35284
C         99.00073      113.83381       47.35410
C         99.76510      112.55374       47.03705
O        100.95469      112.62209       46.75228
C         97.86394      114.06558       46.33183
C         97.01590      115.28407       46.72080
O         98.40834      114.25571       45.05072
H        100.44171      115.15900       46.49849
H         98.54068      113.69803       48.35811
H         97.20268      113.16930       46.33127
H         97.66420      114.15500       44.40169
H         96.57869      115.13939       47.73188
H         97.62726      116.21143       46.72165
H         96.18522      115.41425       45.99595
N         99.14508      111.33668       47.10247
C         99.81172      110.07107       46.79315
C         98.99929      109.24535       45.79059
O         97.79291      109.11425       45.94796
C        100.17171      109.27287       48.08572
C         98.94347      108.80061       48.89933
C        101.14271      110.10503       48.94929
C         99.32553      107.93024       50.10263
H         98.16671      111.30102       47.42828
H        100.79708      110.26983       46.31990
H        100.72362      108.36489       47.76039
H         98.30054      108.17531       48.24681
H         98.35205      109.67070       49.25445
H        101.55055      109.51853       49.79595
H        102.01471      110.41297       48.34239
H        100.64630      111.01505       49.34754
H         99.92807      107.05793       49.77143
H         99.90051      108.50512       50.85679
H         98.40749      107.55794       50.60180
N         99.63350      108.58680       44.77680
C         98.98930      107.67712       43.82400
C         99.19822      106.23839       44.27434
O         99.72543      106.03632       45.35229
C         99.59512      107.90309       42.41638
C         99.23282      109.22905       41.81190
O         98.38428      110.06911       42.43372
O         99.67132      109.52514       40.71209
H        100.66062      108.64220       44.74240
H         97.88782      107.82997       43.78634
H         99.22954      107.14111       41.70024
H        100.70241      107.80667       42.47835
N         98.78854      105.18053       43.51551
C         98.93450      103.78348       43.92396
C        100.37824      103.39643       44.27680
O        100.56060      102.90374       45.38063
C         98.39672      102.83310       42.82932
C         98.53990      101.38638       43.24338
C         97.71674      100.84354       44.24433
C         99.52303      100.57624       42.64774
C         97.87116       99.50931       44.63582
C         99.68429       99.24883       43.05347
C         98.85687       98.71428       44.04404
H         98.33933      105.37123       42.60744
H         98.30952      103.62772       44.83321
H         98.96194      103.01142       41.89667
H         97.33250      103.04870       42.59189
H         96.95303      101.45029       44.71453
H        100.17997      100.97764       41.88610
H         97.22983       99.09218       45.40135
H        100.45378       98.63601       42.60189
H         98.98166       97.68492       44.35436
N        101.44909      103.53858       43.42786
C        102.79333      103.06623       43.74994
C        103.35671      103.76348       44.97334
O        103.95890      103.09610       45.80374
C        103.58357      103.31285       42.45754
C        102.88174      104.50102       41.84225
C        101.41704      104.17405       42.12290
H        102.82004      101.96957       43.94144
H        104.68555      103.39218       42.57509
H        103.37522      102.45924       41.77162
H        103.17422      105.40383       42.41607
H        103.11189      104.69077       40.77236
H        100.84650      105.12202       42.09270
H        101.03881      103.44550       41.37629
N        103.13117      105.08384       45.19271
C        103.57787      105.79402       46.38549
C        103.00056      105.14267       47.63407
O        103.75892      104.76918       48.51747
C        103.14654      107.26900       46.29320
C        103.85542      107.99098       45.13231
C        103.35139      109.39013       45.00601
O        102.85985      109.78081       43.95868
O        103.42483      110.21721       46.05899
H        102.56707      105.59605       44.50135
H        104.68902      105.76655       46.45151
H        103.39956      107.79301       47.24183
H        102.04677      107.31464       46.15034
H        103.68907      107.47191       44.16519
H        104.94848      108.01471       45.32946
N        101.66214      104.94213       47.75356
C        101.05321      104.29432       48.89187
H         99.95475      104.21828       48.73287
H        101.46163      103.26860       49.00840
H        101.24061      104.88515       49.81129
H        101.04961      105.23506       46.99380
Ca       103.29347      112.66789       44.79557
O        100.13454      111.84048       43.87157
H        100.44137      112.68216       44.28609
H         99.59480      112.14445       43.10098
O        102.17899      111.89179       41.42426
H        101.30966      111.42362       41.39841
H        102.36459      112.13105       40.48225

Ca 1.0



