%chk=holoCaM-CaMKII.loop1.water2.frame272.chk
%nprocshared=20
%mem=10GB
%nosave
#b3lyp/svp scf=(tight,noincore,xqc) Test 
#IOP(5/87=12) Density=Current Pop=(MK,readradii) iop(6/33=2) iop(6/42=6)

holoCaM-CaMKII.loop1.water2.frame272 

   0  1 
C         67.35756       37.19595       61.14595
C         68.26342       38.39023       61.13693
O         68.62140       38.84406       60.06891
H         66.42684       37.43528       60.58993
H         67.86640       36.34112       60.65202
H         67.08816       36.89998       62.18107
N         68.71281       38.93793       62.29327
C         69.60029       40.09396       62.34615
C         70.97531       39.57622       62.73262
O         71.51503       39.93290       63.76902
C         68.93313       41.12804       63.27814
C         69.63875       42.42840       63.56135
O         69.89791       43.35315       62.61400
O         69.86455       42.72119       64.72444
H         68.44621       38.49287       63.18521
H         69.71596       40.57158       61.35149
H         68.73891       40.63112       64.25362
H         67.94696       41.39387       62.83688
N         71.58223       38.67487       61.89630
C         72.89310       38.06274       62.12454
C         74.04651       39.05051       61.98232
O         75.16754       38.67359       62.29541
C         73.14482       36.93836       61.09174
C         72.16667       35.76034       61.20984
C         72.42144       34.75576       60.07788
C         71.50524       33.53261       60.19078
N         71.71751       32.62105       59.06626
H         71.06247       38.39126       61.05267
H         72.90572       37.62778       63.14853
H         74.17121       36.52853       61.22392
H         73.07825       37.38052       60.07151
H         71.11518       36.11025       61.13701
H         72.30981       35.27063       62.19799
H         73.48035       34.41626       60.10502
H         72.23547       35.26194       59.10446
H         70.44164       33.85881       60.19880
H         71.71924       33.00063       61.14456
H         72.71404       32.30443       59.03820
H         71.09881       31.78605       59.17922
H         71.47598       33.10028       58.16807
N         73.86198       40.30751       61.49147
C         74.93761       41.29080       61.33584
C         74.80197       42.41737       62.36316
O         75.71108       43.22800       62.46789
C         75.02688       41.77294       59.85866
C         73.76900       42.43603       59.35527
O         73.66262       42.77687       58.18905
O         72.75855       42.61484       60.21651
H         72.90922       40.58029       61.23165
H         75.91269       40.81225       61.57173
H         75.21912       40.87876       59.22551
H         75.88221       42.47153       59.73735
N         73.74079       42.46666       63.22172
C         73.67097       43.31187       64.39750
C         73.64418       44.78942       64.12680
O         74.47667       45.49763       64.67529
H         72.96536       41.80445       63.11613
H         74.51976       43.06193       65.07004
H         72.73371       43.06899       64.94585
N         72.66100       45.33628       63.36234
C         72.44875       46.77650       63.24941
C         71.08780       47.19519       63.81955
O         70.85133       48.39134       63.91230
C         72.68891       47.24658       61.80043
C         71.89078       46.49462       60.77432
O         70.55120       46.53587       60.79239
O         72.46006       45.85136       59.90664
H         72.01058       44.70177       62.87825
H         73.19054       47.32104       63.87416
H         73.76738       47.09900       61.57190
H         72.47350       48.33370       61.71540
N         70.16064       46.28562       64.25121
C         68.91075       46.63639       64.91196
C         67.68911       46.36706       64.05639
O         66.58740       46.46753       64.57852
H         70.33294       45.28196       64.13960
H         68.88057       47.70796       65.20264
H         68.85123       46.03974       65.84847
N         67.79465       46.12363       62.71931
C         66.65409       45.99626       61.81644
C         66.77764       44.76199       60.92918
O         67.77291       44.05470       60.98881
C         66.52709       47.29527       60.96378
C         65.95984       48.44297       61.79745
O         67.76671       47.71181       60.45555
H         68.72801       46.11990       62.29390
H         65.70808       45.86316       62.38749
H         65.81055       47.15081       60.12615
H         68.13974       46.95658       59.94797
H         64.94711       48.17718       62.16891
H         66.61837       48.67658       62.65935
H         65.86876       49.35117       61.16362
N         65.74883       44.43162       60.09732
C         65.71230       43.25126       59.23815
C         65.49472       43.68525       57.79055
O         64.58838       44.46553       57.52990
C         64.58749       42.28916       59.73522
C         64.93150       41.79525       61.17011
C         64.41658       41.09435       58.77365
C         63.88116       40.87586       61.79686
H         64.90770       45.02989       60.10412
H         66.66338       42.67831       59.29564
H         63.62257       42.84373       59.76072
H         65.03239       42.67251       61.84380
H         65.90497       41.25622       61.15788
H         65.35232       40.49958       58.71108
H         63.58540       40.43544       59.09364
H         64.14092       41.44574       57.75961
H         64.19465       40.61562       62.83031
H         62.89626       41.38575       61.84076
H         63.78538       39.92409       61.23657
N         66.24285       43.13625       56.78718
C         66.04136       43.41383       55.36329
C         65.37247       42.22863       54.69328
O         65.14914       41.22052       55.33948
C         67.39343       43.70351       54.64606
C         68.07831       44.97608       55.13649
O         68.26383       42.60031       54.73718
H         66.92218       42.40739       57.03969
H         65.35871       44.28133       55.23064
H         67.20313       43.87593       53.56664
H         68.69813       42.61559       55.62916
H         68.32413       44.87111       56.20117
H         69.02246       45.13488       54.57184
H         67.41696       45.85471       54.99086
N         65.01165       42.29268       53.38240
C         64.44480       41.16793       52.63873
C         65.45528       40.03900       52.52145
O         65.09094       38.88940       52.72163
C         63.99263       41.60250       51.22317
C         62.84353       42.61281       51.28747
O         65.05928       42.16293       50.49814
H         65.16386       43.18334       52.88620
H         63.53451       40.78740       53.15621
H         63.58581       40.70965       50.68862
H         65.45777       41.43697       49.95059
H         61.98067       42.17548       51.83463
H         63.15302       43.54706       51.79990
H         62.51223       42.86975       50.25970
N         66.75809       40.31408       52.22549
C         67.80947       39.30375       52.10221
C         67.84169       38.43357       53.34041
O         67.76211       37.21824       53.22682
C         69.18798       39.98246       51.90245
C         69.26773       40.76634       50.57980
C         70.62076       41.47717       50.43070
C         70.70396       42.34029       49.15822
N         70.61455       41.54505       47.93220
H         67.01709       41.30635       52.13346
H         67.60813       38.65189       51.22337
H         69.98219       39.20294       51.89135
H         69.38988       40.66788       52.75608
H         68.47568       41.54077       50.53768
H         69.11086       40.05368       49.74391
H         71.44720       40.73381       50.43512
H         70.75918       42.15581       51.30152
H         71.67902       42.87578       49.16633
H         69.89641       43.10632       49.16779
H         71.36260       40.81444       47.92153
H         69.67467       41.09814       47.84557
H         70.74784       42.17636       47.10950
N         67.90225       39.01044       54.56631
C         67.87176       38.26592       55.81698
C         66.61186       37.41698       55.91785
O         66.72513       36.21993       56.14303
C         67.99541       39.24322       57.00070
C         69.40079       39.89116       57.00945
C         69.63798       40.81857       58.16269
O         68.94824       41.81134       58.31824
O         70.66024       40.58074       59.00563
H         67.93441       40.03937       54.60364
H         68.74416       37.57603       55.86918
H         67.84763       38.65824       57.92116
H         67.19707       40.01593       56.95516
H         69.57069       40.46496       56.07830
H         70.16380       39.08457       57.05627
N         65.38078       37.95578       55.72123
C         64.16640       37.17157       55.76605
H         63.29369       37.81350       55.51677
H         64.21778       36.34823       55.02165
H         64.02263       36.75034       56.78249
H         65.30244       38.94812       55.49544
Ca        70.62356       43.17539       60.49824
O         69.26609       45.44599       58.37545
H         68.27695       45.48494       58.32212
H         69.56952       46.29107       57.95629
O         71.37885       44.19797       56.58247
H         71.78889       43.51245       55.99746
H         72.14475       44.62526       57.04231

Ca 1.0



