%chk=holoCaM.loop3.water2.frame219.chk
%nprocshared=20
%mem=10GB
%nosave
#b3lyp/svp scf=(tight,noincore,xqc) Test 
#IOP(5/87=12) Density=Current Pop=(MK,readradii) iop(6/33=2) iop(6/42=6)

holoCaM.loop3.water2.frame219 

   0  1 
C         40.32943       63.47312       -4.87645
C         41.13934       62.56085       -4.00693
O         41.46111       61.45925       -4.42247
H         39.37441       63.72049       -4.36752
H         40.89961       64.41048       -5.05299
H         40.10977       62.99759       -5.85487
N         41.52116       62.98264       -2.77359
C         42.35912       62.20378       -1.86601
C         41.62634       60.92062       -1.45963
O         40.68133       60.97904       -0.68532
C         42.68156       63.12093       -0.66925
C         43.64884       62.68311        0.37181
O         44.61028       61.77571        0.17014
O         43.65107       63.29020        1.42800
H         41.22525       63.93191       -2.49239
H         43.30420       61.96042       -2.40229
H         41.72646       63.36814       -0.15798
H         43.10016       64.07783       -1.05265
N         41.94436       59.74009       -2.06395
C         41.21588       58.48498       -1.87080
C         41.51447       57.88657       -0.50094
O         40.59879       57.60121        0.25710
C         41.62312       57.46549       -2.97249
C         40.64958       56.27996       -3.06780
C         41.14752       55.22231       -4.06503
C         40.09817       54.11765       -4.26019
N         40.60997       53.04458       -5.11260
H         42.67679       59.76997       -2.78135
H         40.12937       58.68729       -2.00752
H         42.65370       57.09656       -2.79146
H         41.61311       57.96748       -3.96578
H         39.66148       56.67207       -3.39672
H         40.52878       55.79363       -2.07641
H         42.08845       54.78057       -3.66855
H         41.36268       55.68782       -5.05228
H         39.18925       54.55987       -4.72744
H         39.81195       53.68828       -3.27501
H         40.90027       53.42180       -6.04364
H         41.42523       52.58163       -4.64847
H         39.85713       52.33246       -5.25406
N         42.81330       57.65895       -0.15032
C         43.26498       57.00658        1.07963
C         43.53359       57.98265        2.22323
O         43.84676       57.51920        3.31185
C         44.48707       56.08394        0.79949
C         45.71147       56.75285        0.21034
O         46.71258       56.09485       -0.01383
O         45.69889       58.04291       -0.14607
H         43.51749       57.96484       -0.82583
H         42.45093       56.34128        1.44816
H         44.17582       55.29205        0.08448
H         44.78191       55.58464        1.74825
N         43.35538       59.32716        2.08967
C         43.40315       60.24539        3.21697
C         44.76728       60.42947        3.85103
O         44.88169       60.17806        5.04264
H         43.06301       59.71471        1.18208
H         42.67461       59.89878        3.98527
H         43.05850       61.24375        2.88337
N         45.82077       60.94825        3.14778
C         47.08889       61.33329        3.77724
C         47.37956       62.83389        3.65331
O         48.31731       63.29218        4.29106
C         48.26960       60.50912        3.22314
C         48.68890       60.90851        1.82564
N         49.93787       61.37728        1.59026
O         47.90164       60.81030        0.90060
H         45.69866       61.10914        2.14445
H         47.02533       61.11161        4.86415
H         48.00975       59.42914        3.24676
H         49.13607       60.65803        3.90289
H         50.62423       61.46979        2.35319
H         50.22453       61.65095        0.63944
N         46.65027       63.65018        2.83505
C         46.87412       65.07922        2.68583
C         47.30839       65.46573        1.28336
O         47.42084       66.65808        1.03642
H         45.89445       63.25813        2.26912
H         47.64607       65.45257        3.39230
H         45.92020       65.59796        2.92309
N         47.62388       64.53486        0.33099
C         48.11929       64.88220       -0.99930
C         47.25247       64.25368       -2.08298
O         46.34142       63.49646       -1.77674
C         49.57662       64.38236       -1.16850
C         50.58439       65.05208       -0.25795
C         50.54892       64.87835        1.13795
C         51.60483       65.84399       -0.81635
C         51.50299       65.49367        1.95377
C         52.55854       66.45551        0.00077
C         52.50977       66.28331        1.39021
O         53.42576       66.86533        2.19009
H         47.56597       63.53270        0.56117
H         48.10356       65.98319       -1.15637
H         49.88881       64.56736       -2.21757
H         49.62292       63.28774       -1.00845
H         49.79599       64.26057        1.60438
H         51.66697       65.98972       -1.88781
H         51.46243       65.35076        3.02625
H         53.33609       67.06031       -0.44878
H         54.14124       67.41390        1.83773
N         47.51031       64.53069       -3.39567
C         46.81055       63.91809       -4.51917
C         47.85123       63.22009       -5.38621
O         48.80066       63.87710       -5.79324
C         46.06453       64.99056       -5.37663
C         45.19540       65.93305       -4.50635
C         45.20181       64.28344       -6.44725
C         44.54570       67.06533       -5.31210
H         48.25450       65.20949       -3.61850
H         46.05059       63.19048       -4.15582
H         46.82509       65.62624       -5.88347
H         45.84743       66.42223       -3.75164
H         44.40954       65.35835       -3.97038
H         45.82036       63.62281       -7.08143
H         44.41075       63.66792       -5.96425
H         44.72068       65.00494       -7.13541
H         45.32130       67.64475       -5.85874
H         43.80112       66.67958       -6.03693
H         44.01241       67.75431       -4.62502
N         47.70603       61.92136       -5.77368
C         48.61044       61.28117       -6.72549
C         47.95198       61.24478       -8.08674
O         46.79065       61.59361       -8.20161
C         48.99748       59.86817       -6.25738
O         49.72419       59.93948       -5.06357
H         46.85666       61.41610       -5.49809
H         49.53654       61.88308       -6.84826
H         49.62687       59.38194       -7.03605
H         48.07889       59.25932       -6.10314
H         50.03788       59.01588       -4.87616
N         48.66469       60.89362       -9.18925
C         48.09354       60.89336      -10.53252
C         46.99017       59.86220      -10.64870
O         45.91766       60.19075      -11.13603
C         49.18224       60.62553      -11.57025
H         49.66037       60.65087       -9.06950
H         47.68525       61.90390      -10.76415
H         49.96283       61.41360      -11.49209
H         49.65160       59.63267      -11.41373
H         48.74725       60.67315      -12.59167
N         47.17411       58.60359      -10.15787
C         46.14426       57.56838      -10.16419
C         44.85600       58.07680       -9.55191
O         43.80417       57.92255      -10.15680
C         46.62720       56.34678       -9.36800
H         48.07751       58.39136       -9.70545
H         45.94551       57.24261      -11.20892
H         45.85343       55.54915       -9.37928
H         47.55814       55.93901       -9.81461
H         46.83397       56.62151       -8.30986
N         44.88009       58.72088       -8.35468
C         43.68486       59.21891       -7.68278
C         42.95190       60.20882       -8.57857
O         41.78661       59.98821       -8.87803
C         44.03503       59.83557       -6.30386
C         44.78393       58.82336       -5.40545
C         45.02643       59.31146       -4.01103
O         45.58081       60.37573       -3.80122
O         44.70707       58.52063       -2.97438
H         45.80153       58.86553       -7.92120
H         43.00838       58.35788       -7.48026
H         43.08569       60.12720       -5.81108
H         44.65908       60.74729       -6.42978
H         45.77902       58.60018       -5.82891
H         44.21213       57.87173       -5.34852
N         43.59403       61.29194       -9.09354
C         42.96781       62.21236      -10.01730
H         42.10478       62.71442       -9.53443
H         43.70216       62.98503      -10.33444
H         42.62799       61.66661      -10.92400
H         44.57547       61.45208       -8.85503
Ca        45.78533       60.16681       -0.78563
O         47.78471       58.14343       -2.66760
H         47.51852       57.19422       -2.57872
H         48.77381       58.12362       -2.70009
O         48.62552       61.15018       -2.16764
H         48.43045       60.83069       -3.08255
H         49.61412       61.16465       -2.11533

Ca 1.0



