%chk=holoCaM-CaMKII.loop2.water2.frame257.chk
%nprocshared=20
%mem=10GB
%nosave
#b3lyp/svp scf=(tight,noincore,xqc) Test 
#IOP(5/87=12) Density=Current Pop=(MK,readradii) iop(6/33=2) iop(6/42=6)

holoCaM-CaMKII.loop2.water2.frame257 

   -2  1 
C        114.49070       84.17435       59.99827
C        114.89085       83.47858       58.72910
O        114.75452       82.26759       58.64705
H        113.41189       83.99316       60.19143
H        115.08708       83.78689       60.84865
H        114.64694       85.27217       59.92522
N        115.37027       84.19598       57.67819
C        115.68075       83.60951       56.38136
C        116.83946       82.62103       56.47177
O        117.89945       83.00016       56.95056
C        116.03350       84.73597       55.38442
C        116.03361       84.26864       53.96084
O        116.34199       85.04172       53.06884
O        115.61625       83.02850       53.65061
H        115.46010       85.21808       57.79009
H        114.75897       83.10740       56.01357
H        117.02219       85.17047       55.64904
H        115.27142       85.54250       55.44067
N        116.71591       81.34924       55.98868
C        117.79195       80.36062       56.01846
C        118.26115       79.94780       54.62193
O        119.19584       79.16160       54.54457
C        117.29887       79.12387       56.78076
H        115.81999       81.06886       55.56954
H        118.67816       80.76967       56.54969
H        116.42773       78.67080       56.25681
H        118.10062       78.35858       56.85754
H        116.98403       79.40606       57.80757
N        117.65292       80.39121       53.48076
C        117.96595       79.86581       52.15353
C        117.88295       80.90773       51.02490
O        118.13284       80.52815       49.88877
C        117.05964       78.64087       51.89585
C        115.60265       78.91126       52.15828
O        114.95497       78.22332       53.11819
O        115.00488       79.76179       51.52812
H        116.80752       80.96020       53.56870
H        119.01363       79.49063       52.12458
H        117.37191       77.83444       52.59513
H        117.20568       78.25926       50.86269
N        117.58944       82.22697       51.23754
C        117.59227       83.23745       50.18074
C        116.54125       83.07108       49.08805
O        116.59603       83.83588       48.13523
H        117.44153       82.56230       52.19272
H        118.59580       83.22478       49.70127
H        117.45226       84.24344       50.63153
N        115.59009       82.09381       49.11475
C        114.72006       81.80152       47.97272
C        113.68474       82.87540       47.62035
O        113.05616       82.72821       46.58153
C        114.06644       80.40814       48.13542
C        113.12298       80.23490       49.29973
N        112.56682       79.02121       49.51681
O        112.87143       81.16047       50.05590
H        115.56430       81.46352       49.92179
H        115.38744       81.70679       47.08753
H        114.88514       79.66598       48.26358
H        113.51714       80.15030       47.20544
H        112.78089       78.22650       48.89776
H        111.93139       78.86330       50.30671
N        113.43928       83.96247       48.40677
C        112.50801       85.02854       48.04829
C        111.27130       85.07789       48.92708
O        110.50909       86.02482       48.78840
H        113.93890       84.06200       49.29372
H        112.15092       84.93135       46.99992
H        113.05517       85.99261       48.11913
N        110.95236       84.06323       49.78040
C        109.71336       84.00384       50.55539
C        109.99979       83.70397       52.02071
O        111.14957       83.51078       52.38679
C        108.80977       82.88323       49.96464
C        108.35217       83.21105       48.54291
O        109.49112       81.65460       49.94565
H        111.57121       83.24434       49.82551
H        109.15636       84.96579       50.50406
H        107.87085       82.78140       50.55441
H        109.43054       81.27935       50.86092
H        107.69481       82.39775       48.16690
H        107.77209       84.15858       48.53836
H        109.21762       83.30870       47.85522
N        108.96799       83.56497       52.90084
C        109.12336       83.05043       54.25621
C        108.51213       81.66518       54.24931
O        107.36117       81.53441       53.85048
C        108.41717       83.94964       55.31432
C        108.92095       85.41185       55.24151
C        108.63971       83.35640       56.72626
C        108.18877       86.35174       56.20709
H        108.00558       83.72230       52.56362
H        110.19867       82.97646       54.53307
H        107.32496       83.95453       55.09881
H        108.74237       85.79989       54.21595
H        110.01252       85.45555       55.44609
H        108.26947       82.31317       56.78563
H        109.72107       83.35977       56.98422
H        108.08383       83.91808       57.50164
H        107.09352       86.32011       56.02201
H        108.38789       86.08810       57.26549
H        108.54337       87.39225       56.05572
N        109.21169       80.58441       54.69179
C        108.66026       79.23716       54.67002
C        108.17868       78.83659       56.05047
O        108.34189       79.59578       56.99117
C        109.68349       78.24012       54.08200
C        109.95858       78.52952       52.62758
O        110.72344       79.56990       52.23946
O        109.50291       77.78549       51.77441
H        110.14226       80.72547       55.10935
H        107.74778       79.20357       54.03488
H        109.23557       77.22686       54.13335
H        110.62912       78.21704       54.66956
N        107.49029       77.67226       56.21904
C        106.92856       77.23259       57.49168
C        107.99632       76.99630       58.56129
O        107.81799       77.53211       59.64683
C        106.05168       75.97801       57.29417
C        105.34447       75.58155       58.57124
C        105.59011       74.32937       59.15797
C        104.43272       76.46015       59.18852
C        104.94212       73.96620       60.34284
C        103.78921       76.09327       60.37363
C        104.04429       74.84761       60.95101
H        107.32031       77.08701       55.38636
H        106.24488       78.03540       57.84759
H        106.67560       75.14414       56.91414
H        105.27689       76.18919       56.52459
H        106.28499       73.63588       58.70163
H        104.21772       77.42934       58.75668
H        105.13744       73.00090       60.79071
H        103.09258       76.77548       60.84432
H        103.54532       74.56531       61.86895
N        109.13851       76.25352       58.36346
C        110.15654       76.03500       59.39327
C        110.91461       77.29976       59.80792
O        111.78971       77.19400       60.65545
C        111.06951       74.97072       58.77298
C        110.98921       75.30225       57.30274
C        109.50120       75.58021       57.13071
H        109.70615       75.60588       60.31550
H        112.09123       74.90263       59.20365
H        110.57735       73.97795       58.89254
H        111.54604       76.25445       57.14202
H        111.39125       74.53155       56.61146
H        109.39746       76.19464       56.22305
H        108.91095       74.64222       57.04764
N        110.58433       78.52874       59.32501
C        111.13454       79.78719       59.80646
C        110.08583       80.45875       60.67476
O        110.38928       80.80282       61.80828
C        111.49452       80.68844       58.61753
C        112.56149       80.05777       57.71327
C        112.75402       80.85191       56.45715
O        113.49104       80.33202       55.46930
O        112.12533       81.87838       56.25096
H        109.84625       78.60580       58.62447
H        112.04896       79.62903       60.42092
H        111.86115       81.67396       58.98018
H        110.57233       80.85997       58.01727
H        112.21149       79.05275       57.39276
H        113.52464       79.93766       58.25252
N        108.80974       80.63255       60.22654
C        107.76755       81.21061       61.04315
H        106.80146       81.18272       60.49330
H        107.65136       80.62495       61.98009
H        108.01498       82.26464       61.28277
H        108.54738       80.31383       59.28727
Ca       112.35672       80.36228       53.55178
O        112.78236       84.32114       54.57828
H        112.84419       85.22635       54.18271
H        112.56844       84.47951       55.53126
O        113.77855       83.84579       51.73140
H        114.67769       83.63940       51.37380
H        113.66533       84.81779       51.57986

Ca 1.0



