%chk=holoCaM-CaMKII.loop4.water2.frame126.chk
%nprocshared=20
%mem=10GB
%nosave
#b3lyp/svp scf=(tight,noincore,xqc) Test 
#IOP(5/87=12) Density=Current Pop=(MK,readradii) iop(6/33=2) iop(6/42=6)

holoCaM-CaMKII.loop4.water2.frame126 

   -3  1 
C         26.70274       45.01931       70.79661
C         27.07811       43.81027       71.60250
O         28.04424       43.85217       72.34986
H         25.67460       45.34190       71.06775
H         27.40466       45.85856       70.98199
H         26.72405       44.76426       69.71541
N         26.33138       42.68179       71.48986
C         26.59169       41.45231       72.22922
C         27.96585       40.87172       71.89101
O         28.22151       40.55355       70.73840
C         25.47045       40.44480       71.91000
C         25.73426       39.09580       72.48874
O         25.81925       38.14020       71.74179
O         25.91406       38.93149       73.80928
H         25.51990       42.71372       70.85105
H         26.54314       41.67097       73.32059
H         25.37583       40.33503       70.80660
H         24.50325       40.82962       72.30100
N         28.88677       40.68648       72.88308
C         30.21787       40.11052       72.68433
C         30.15996       38.58617       72.76239
O         30.45421       37.93079       71.77252
C         31.21468       40.71739       73.73438
C         31.45768       42.21479       73.41152
C         32.54530       39.93792       73.80285
C         32.26281       42.96263       74.47754
H         28.62705       40.97793       73.83571
H         30.59221       40.37689       71.66954
H         30.75651       40.64063       74.74317
H         30.48192       42.73778       73.32432
H         31.98281       42.29894       72.43447
H         33.20870       40.34564       74.59092
H         32.36891       38.88231       74.09745
H         33.06991       39.95675       72.82671
H         32.37743       44.02370       74.17079
H         31.73013       42.93169       75.45150
H         33.28149       42.54425       74.59924
N         29.87011       37.95960       73.93772
C         29.95006       36.50870       74.14653
C         28.92296       35.67248       73.36629
O         28.99021       34.45476       73.46595
C         29.90742       36.17884       75.66261
C         28.67069       36.66491       76.36484
O         27.76063       37.38518       75.69161
O         28.49986       36.42024       77.54785
H         29.69173       38.56090       74.75011
H         30.95310       36.17347       73.79973
H         30.78341       36.65004       76.15892
H         29.99671       35.07844       75.79519
N         28.00259       36.22207       72.52451
C         27.20940       35.42168       71.59762
C         25.90147       34.86134       72.12797
O         25.21292       34.23852       71.33048
H         27.99852       37.23898       72.39062
H         27.83607       34.60874       71.16956
H         26.93419       36.07083       70.73860
N         25.45017       35.03888       73.40703
C         24.13943       34.52557       73.83551
C         22.95352       35.31197       73.24979
O         21.82357       34.96779       73.56477
C         24.06040       34.36364       75.37564
C         24.15645       35.60688       76.20361
O         24.29264       35.50720       77.41256
O         24.18434       36.82164       75.64615
H         26.05475       35.51863       74.09059
H         24.05209       33.47531       73.47609
H         24.91543       33.71401       75.66803
H         23.12561       33.83369       75.65811
N         23.12346       36.33772       72.35798
C         22.02571       37.05462       71.71921
C         21.48339       38.19814       72.55104
O         20.53812       38.83893       72.10983
H         24.06176       36.58264       72.04085
H         21.21743       36.33921       71.45419
H         22.39505       37.49783       70.76965
N         22.01375       38.50884       73.76274
C         21.49292       39.52802       74.66466
C         22.58791       40.50753       75.03511
O         23.75306       40.13062       75.01589
C         20.95206       38.79712       75.90650
C         19.70073       37.98166       75.52710
C         19.21394       37.04797       76.60139
N         18.10224       36.30969       76.37852
O         19.81882       36.93206       77.65735
H         22.80772       37.95758       74.10453
H         20.66323       40.10632       74.19988
H         20.68385       39.51240       76.71382
H         21.74602       38.11614       76.28204
H         19.90799       37.34699       74.64076
H         18.88919       38.69583       75.26722
H         17.58447       36.39983       75.49099
H         17.75698       35.64812       77.08853
N         22.28884       41.79011       75.39484
C         23.31473       42.77567       75.71669
C         23.21933       43.12467       77.18739
O         22.27678       43.79038       77.59744
C         23.18288       44.03741       74.81213
C         24.28364       45.07174       75.10448
C         23.23606       43.66624       73.32417
H         21.29869       42.07989       75.44312
H         24.32314       42.34183       75.53279
H         22.19700       44.51627       75.00555
H         24.23703       45.41456       76.15588
H         25.28929       44.64453       74.90601
H         24.14911       45.96773       74.46154
H         22.41487       42.96739       73.06194
H         23.11686       44.57657       72.69738
H         24.20675       43.19106       73.08098
N         24.17454       42.67727       78.04744
C         24.22607       43.02836       79.46294
C         24.62795       44.49549       79.58325
O         24.93276       45.10552       78.56992
C         25.22352       42.05188       80.15453
C         25.28298       42.09053       81.66418
N         24.74867       41.08830       82.40112
O         25.85304       43.00476       82.23319
H         24.89969       42.05112       77.67480
H         23.22107       42.85510       79.90735
H         26.24966       42.16021       79.73978
H         24.88263       41.03412       79.87947
H         24.26666       40.29555       81.95330
H         24.80577       41.11177       83.43013
N         24.65157       45.14388       80.77734
C         25.17051       46.50251       80.91342
C         26.64595       46.55578       80.53238
O         27.02739       47.43652       79.77604
C         24.97012       47.02067       82.35047
C         25.57446       48.39776       82.52764
C         25.17594       49.47587       81.71457
C         26.56918       48.60473       83.49693
C         25.77495       50.73014       81.86088
C         27.15891       49.86207       83.64769
C         26.76713       50.92831       82.82595
O         27.33728       52.14313       82.95323
H         24.30037       44.65866       81.61371
H         24.59812       47.17813       80.24012
H         25.43291       46.30600       83.06634
H         23.88095       47.06519       82.56812
H         24.41490       49.34742       80.95583
H         26.89314       47.79157       84.13438
H         25.47041       51.54772       81.21927
H         27.92467       50.00347       84.39939
H         28.02929       52.31966       83.60641
N         27.53298       45.64604       81.02431
C         28.95745       45.64622       80.68875
C         29.23492       45.40405       79.20206
O         30.39052       45.53018       78.81970
C         29.71237       44.58062       81.51447
C         29.65125       44.85335       83.02671
C         30.35840       43.77296       83.79230
O         31.54739       43.56370       83.61110
O         29.68088       43.03048       84.68885
H         27.17493       44.93554       81.67193
H         29.37045       46.64707       80.94836
H         30.78452       44.57514       81.21520
H         29.28189       43.57880       81.29061
H         28.59897       44.89370       83.37482
H         30.12792       45.83234       83.25034
N         28.25334       45.08551       78.30376
C         28.49291       44.94082       76.86852
C         27.86910       46.09358       76.08816
O         28.22673       46.27361       74.93235
C         27.94866       43.59290       76.35111
C         28.50356       42.40072       77.14066
C         27.97407       41.09931       76.61486
O         28.74580       40.22109       76.27732
O         26.65099       40.87816       76.53537
H         27.29597       44.95510       78.63620
H         29.58618       44.98561       76.67056
H         28.20297       43.48321       75.27315
H         26.84009       43.59105       76.45195
H         28.19472       42.48846       78.20284
H         29.61414       42.39845       77.09091
N         26.94176       46.92365       76.64598
C         26.40105       48.07723       75.96607
H         25.64137       48.56822       76.61420
H         27.21428       48.80716       75.77024
H         25.91871       47.77735       75.01434
H         26.58583       46.74355       77.58583
Ca        25.80035       38.06290       76.49157
O         23.61385       39.28927       78.36133
H         23.17728       38.48599       77.98758
H         23.82388       39.03016       79.29273
O         26.61700       38.59176       79.37315
H         27.58548       38.41022       79.46668
H         26.20638       37.69715       79.26281

Ca 1.0



