%chk=holoCaM-CaMKII.loop4.water1.frame54.chk
%nprocshared=20
%mem=10GB
%nosave
#b3lyp/svp scf=(tight,noincore,xqc) Test 
#IOP(5/87=12) Density=Current Pop=(MK,readradii) iop(6/33=2) iop(6/42=6)

holoCaM-CaMKII.loop4.water1.frame54 

   -3  1 
C          8.99850       56.73719       74.36193
C          9.70055       56.28396       73.11249
O         10.64633       56.93202       72.69071
H          8.16764       56.05025       74.63354
H          9.72023       56.74929       75.20626
H          8.58203       57.75421       74.21788
N          9.31158       55.13927       72.49220
C         10.00226       54.56921       71.34254
C          9.78379       55.39647       70.07263
O          8.64051       55.63489       69.70895
C          9.49093       53.13197       71.12838
C         10.30620       52.33763       70.15762
O          9.91264       51.09422       69.85559
O         11.33416       52.77799       69.67329
H          8.53326       54.60587       72.91197
H         11.08432       54.48945       71.59575
H          8.43213       53.16039       70.79202
H          9.53735       52.57566       72.09038
N         10.84850       55.80938       69.32245
C         10.75512       56.56899       68.07199
C         11.24410       55.73802       66.87158
O         10.95338       56.12961       65.75012
C         11.60824       57.87922       68.19684
C         11.21548       58.69346       69.45707
C         11.52112       58.76908       66.93413
C         12.20810       59.81650       69.77869
H         11.77912       55.56531       69.65944
H          9.68885       56.82580       67.88260
H         12.66727       57.55958       68.32511
H         11.22836       58.03046       70.34476
H         10.18869       59.10486       69.34753
H         11.89930       58.25147       66.03346
H         10.47367       59.09382       66.75672
H         12.16403       59.66509       67.01927
H         12.23797       60.59130       68.98847
H         11.91015       60.31509       70.72398
H         13.22754       59.39299       69.91397
N         11.98938       54.59807       67.01031
C         12.52148       53.83607       65.87740
C         11.88094       52.45366       65.74760
O         12.22969       51.73195       64.82376
C         14.06366       53.77130       65.96859
C         14.57718       53.07755       67.20170
O         14.29899       51.90941       67.41701
O         15.38113       53.73672       68.05723
H         12.22586       54.25748       67.94799
H         12.28966       54.35516       64.92191
H         14.46052       54.81106       65.95359
H         14.46644       53.24694       65.07578
N         10.89039       52.04596       66.58881
C         10.13041       50.81835       66.43026
C         10.92343       49.53957       66.58707
O         10.83839       48.69438       65.70759
H         10.57945       52.67117       67.34120
H          9.61736       50.83068       65.44361
H          9.33977       50.80243       67.21053
N         11.66162       49.29686       67.70730
C         12.26535       47.99625       68.00793
C         11.82251       47.47409       69.38194
O         12.38857       46.49615       69.85018
C         13.80184       48.03517       67.83786
C         14.56253       48.94067       68.75746
O         13.93435       49.68478       69.67550
O         15.77793       49.00011       68.66959
H         11.77134       50.05730       68.39380
H         11.93928       47.23372       67.26681
H         14.02618       48.33901       66.79250
H         14.19416       47.00425       67.98119
N         10.77171       48.03319       70.05605
C         10.28168       47.55518       71.34168
C         11.17986       47.87441       72.52032
O         10.83625       47.45620       73.61820
H         10.22855       48.77751       69.60876
H         10.10595       46.46025       71.27796
H          9.30517       48.04212       71.55757
N         12.31692       48.61683       72.39928
C         13.19482       48.93373       73.51994
C         13.31164       50.43153       73.72082
O         12.79328       51.20631       72.92735
C         14.59086       48.32330       73.26743
C         14.52963       46.78737       73.24821
C         15.86614       46.13304       72.99813
N         15.95815       44.78340       73.00492
O         16.86633       46.80554       72.79111
H         12.58191       48.97818       71.47776
H         12.79037       48.51849       74.46936
H         15.29164       48.62454       74.07635
H         14.99195       48.70549       72.30123
H         13.82725       46.44643       72.45861
H         14.15366       46.44097       74.23542
H         15.12562       44.20264       73.18462
H         16.86173       44.31691       72.83728
N         13.96943       50.90094       74.81369
C         14.20997       52.30577       75.10498
C         15.70875       52.48449       75.27960
O         16.31127       51.80514       76.10170
C         13.38273       52.73212       76.34867
C         13.75247       54.14046       76.84564
C         11.88172       52.71291       75.99653
H         14.32217       50.21378       75.50013
H         13.87441       52.95564       74.26461
H         13.57289       52.02006       77.18176
H         13.12456       54.40912       77.72319
H         14.81133       54.17252       77.17679
H         13.59907       54.90078       76.05032
H         11.26673       52.99087       76.87796
H         11.66593       53.43985       75.18038
H         11.56128       51.70606       75.65806
N         16.36722       53.40962       74.53375
C         17.80269       53.65685       74.58042
C         18.02690       54.93477       75.37869
O         17.05573       55.57370       75.74984
C         18.27192       53.76869       73.09688
C         19.74135       53.83851       72.74609
N         20.10018       54.03541       71.45476
O         20.61017       53.69282       73.58724
H         15.80902       54.02088       73.92458
H         18.31718       52.81865       75.09950
H         17.77748       54.66550       72.66201
H         17.89154       52.88034       72.55452
H         19.38477       54.14808       70.72059
H         21.09400       54.08565       71.18536
N         19.26741       55.36585       75.71466
C         19.52434       56.62702       76.40045
C         18.99977       57.78603       75.57051
O         18.22700       58.58341       76.08245
C         21.04338       56.76317       76.63296
C         21.45442       58.06900       77.26517
C         20.98821       58.43977       78.53747
C         22.33469       58.92297       76.58011
C         21.40232       59.64555       79.11409
C         22.74826       60.12368       77.15816
C         22.28545       60.48867       78.42950
O         22.68555       61.64169       79.00180
H         20.07121       54.77907       75.47635
H         19.01521       56.62676       77.39068
H         21.56114       56.64671       75.65521
H         21.38151       55.93024       77.28704
H         20.31137       57.79614       79.08503
H         22.70801       58.65729       75.59864
H         21.04144       59.92210       80.09665
H         23.43189       60.76579       76.61742
H         23.30508       62.24321       78.56408
N         19.37226       57.92055       74.26712
C         18.93615       59.02287       73.41213
C         17.42093       59.16655       73.34510
O         16.94668       60.27679       73.14762
C         19.56371       58.90036       72.00137
C         19.12665       57.63734       71.23064
C         19.88423       57.50475       69.94043
O         21.22567       57.37730       69.95665
O         19.29007       57.48561       68.87463
H         20.01071       57.21084       73.87948
H         19.32662       59.95891       73.86901
H         20.66835       58.88010       72.13096
H         19.30765       59.79799       71.39658
H         18.03697       57.68567       71.02463
H         19.32757       56.72266       71.82233
N         16.60024       58.09007       73.47975
C         15.14437       58.18690       73.42591
C         14.60878       58.71944       74.74232
O         13.92796       59.73536       74.74075
C         14.53802       56.82243       73.03413
C         15.06259       56.44389       71.63354
C         14.53591       55.15670       71.10363
O         13.98246       55.13716       70.02156
O         14.74442       54.00137       71.74742
H         17.02973       57.15851       73.58248
H         14.84307       58.88458       72.61079
H         13.42930       56.90124       73.00249
H         14.80935       56.04901       73.78205
H         16.16418       56.34594       71.65031
H         14.79413       57.25338       70.91778
N         14.90752       58.09966       75.91549
C         14.46373       58.58953       77.20167
H         13.35602       58.56648       77.25730
H         14.87571       57.94712       78.01072
H         14.82909       59.62651       77.36095
H         15.49346       57.26196       75.90223
Ca        14.03172       52.18584       70.65307
O         16.80461       51.38330       70.84426
H         16.87957       50.40203       70.74425
H         17.27014       51.75646       70.05419

Ca 1.0



