%chk=holoCaM.loop2.water2.frame145.chk
%nprocshared=20
%mem=10GB
%nosave
#b3lyp/svp scf=(tight,noincore,xqc) Test 
#IOP(5/87=12) Density=Current Pop=(MK,readradii) iop(6/33=2) iop(6/42=6)

holoCaM.loop2.water2.frame145 

   -2  1 
C         -2.59153       73.69299        6.01053
C         -1.86896       72.40420        6.26188
O         -1.09705       72.33592        7.20522
H         -3.68554       73.52064        6.10003
H         -2.29742       74.45997        6.75984
H         -2.35919       74.06963        4.99434
N         -2.10601       71.31938        5.47182
C         -1.53984       70.00344        5.73463
C         -0.79077       69.44614        4.53713
O         -1.38315       69.32049        3.47384
C         -2.68491       69.05333        6.11166
C         -2.15009       67.68679        6.39712
O         -2.57647       66.71865        5.78892
O         -1.14731       67.54169        7.28186
H         -2.77751       71.41408        4.69405
H         -0.84725       70.04258        6.60470
H         -3.44383       69.00200        5.29950
H         -3.18482       69.44066        7.02062
N          0.50092       69.01441        4.67191
C          1.23958       68.35310        3.60031
C          1.72091       66.94364        3.97067
O          2.27822       66.29947        3.09264
C          2.43919       69.22442        3.21638
H          0.97925       69.15340        5.57534
H          0.59508       68.24872        2.70059
H          2.99815       68.77187        2.36942
H          2.09041       70.23136        2.90301
H          3.12810       69.33842        4.08124
N          1.59454       66.40638        5.22649
C          2.14869       65.09526        5.59811
C          1.13420       64.13684        6.24069
O          1.51431       63.00747        6.51930
C          3.39152       65.29980        6.48521
C          3.11202       66.15651        7.67640
O          2.19121       65.79338        8.57883
O          3.70228       67.21640        7.81654
H          1.16850       66.96954        5.97431
H          2.51666       64.56286        4.69422
H          4.17371       65.80443        5.87517
H          3.80096       64.32053        6.81292
N         -0.17174       64.47154        6.44476
C         -1.19461       63.51512        6.85770
C         -1.12447       62.96311        8.27511
O         -1.94223       62.10065        8.56330
H         -0.49015       65.40573        6.17348
H         -1.16388       62.65887        6.14831
H         -2.19295       63.99195        6.75362
N         -0.22239       63.37217        9.21595
C         -0.16276       62.75170       10.54791
C         -1.43481       62.92995       11.39088
O         -1.55390       62.24310       12.39787
C          1.08513       63.21759       11.33840
C          1.11329       64.68859       11.67892
N          2.14279       65.19833       12.39375
O          0.21529       65.42778       11.31181
H          0.46498       64.09129        8.96481
H         -0.03677       61.65868       10.37804
H          1.99488       62.98137       10.74502
H          1.13972       62.64342       12.28889
H          2.91483       64.59411       12.70938
H          2.16807       66.20057       12.63464
N         -2.41090       63.82790       11.06725
C         -3.67149       63.97196       11.78170
C         -3.82615       65.28562       12.54027
O         -4.90580       65.51749       13.05255
H         -2.27295       64.43036       10.25357
H         -3.81421       63.15699       12.52456
H         -4.49041       63.88057       11.03561
N         -2.77316       66.13720       12.73949
C         -2.83659       67.31305       13.61948
C         -2.29530       68.56470       12.92861
O         -1.87047       68.49392       11.79353
C         -2.00845       67.00789       14.89714
C         -2.63780       65.87020       15.70568
O         -0.68841       66.65421       14.56877
H         -1.86050       65.88881       12.35565
H         -3.88175       67.52952       13.92592
H         -2.00114       67.88378       15.58332
H         -0.21027       67.49308       14.33527
H         -3.67406       66.14233       16.00253
H         -2.66587       64.92783       15.11987
H         -2.04586       65.69158       16.62776
N         -2.23782       69.75006       13.62333
C         -1.62651       70.96927       13.09749
C         -0.30830       71.17345       13.83201
O         -0.29509       71.33496       15.04084
C         -2.58434       72.19025       13.24942
C         -3.85215       71.97573       12.38367
C         -1.87115       73.50215       12.85946
C         -4.89068       73.09339       12.51125
H         -2.57275       69.77543       14.59330
H         -1.40307       70.85291       12.01758
H         -2.87975       72.27550       14.31884
H         -4.34464       71.02852       12.69028
H         -3.56329       71.88621       11.31384
H         -1.57423       73.48547       11.79185
H         -2.51578       74.38414       13.04148
H         -0.97127       73.66352       13.48528
H         -5.77835       72.84228       11.89380
H         -5.20929       73.20616       13.56860
H         -4.49848       74.06102       12.13721
N          0.85554       71.13009       13.12157
C          2.18696       71.24073       13.71265
C          2.48053       72.68041       14.10288
O          1.63705       73.54046       13.90036
C          3.26128       70.79370       12.68887
C          3.06097       69.40502       12.15716
O          1.95752       69.11936       11.44907
O          3.93073       68.55860       12.28919
H          0.78094       70.97770       12.11182
H          2.25988       70.56244       14.59162
H          4.26432       70.82572       13.16059
H          3.25692       71.48712       11.82003
N          3.68851       73.03126       14.62330
C          4.07378       74.41554       14.86932
C          4.07627       75.24366       13.57095
O          3.36407       76.23578       13.54503
C          5.44811       74.47600       15.57442
C          5.96338       75.86880       15.89319
C          5.10953       76.97280       16.10565
C          7.35251       76.06302       15.99320
C          5.63872       78.23326       16.39451
C          7.87616       77.32616       16.28281
C          7.02013       78.41098       16.48120
H          4.37073       72.28559       14.83325
H          3.32972       74.84600       15.57484
H          6.19916       73.95525       14.95004
H          5.40516       73.90118       16.52455
H          4.03546       76.87934       16.05411
H          8.03375       75.23464       15.84204
H          4.97481       79.07355       16.55222
H          8.94711       77.46368       16.35289
H          7.42637       79.38842       16.70479
N          4.81861       74.93040       12.45464
C          4.84182       75.75057       11.24494
C          3.48000       75.83751       10.57992
O          3.12454       76.91410       10.11852
C          5.90347       75.07304       10.36435
C          5.83070       73.62554       10.78754
C          5.66552       73.76182       12.29890
H          5.19542       76.78731       11.44142
H          5.82328       75.27269        9.27382
H          6.90276       75.43083       10.70349
H          4.91068       73.18530       10.35190
H          6.68562       72.99037       10.47277
H          5.22440       72.82622       12.67410
H          6.64684       73.96355       12.77741
N          2.65116       74.76269       10.51915
C          1.33836       74.79159        9.88509
C          0.45347       75.84342       10.53650
O         -0.07611       76.68926        9.82884
C          0.69818       73.38725        9.93033
C          1.52515       72.38628        9.08838
C          0.95431       70.99754        9.05290
O         -0.17391       70.68895        9.71587
O          1.52309       70.13269        8.40614
H          2.95611       73.89117       10.97116
H          1.44769       75.05819        8.80943
H         -0.32707       73.44402        9.50461
H          0.62503       73.04209       10.98300
H          2.55794       72.30691        9.48297
H          1.58081       72.76013        8.04313
N          0.29330       75.88834       11.88532
C         -0.49506       76.90921       12.54086
H         -1.55604       76.83415       12.22404
H         -0.43992       76.78025       13.64356
H         -0.10054       77.91700       12.28721
H          0.77601       75.19912       12.46890
Ca         1.88158       67.32789       10.15294
O         -2.40607       66.79580        9.58544
H         -1.80339       66.17481        9.10269
H         -3.30138       66.62077        9.20083
O         -2.87312       69.73264        9.51856
H         -2.81361       70.68085        9.23862
H         -3.84232       69.53462        9.53472

Ca 1.0



