%chk=holoCaM.loop2.water1.frame243.chk
%nprocshared=20
%mem=10GB
%nosave
#b3lyp/svp scf=(tight,noincore,xqc) Test 
#IOP(5/87=12) Density=Current Pop=(MK,readradii) iop(6/33=2) iop(6/42=6)

holoCaM.loop2.water1.frame243 

   -2  1 
C         54.07346      101.72559       45.52190
C         53.28576      102.18852       44.33806
O         52.52692      101.40409       43.78493
H         55.15758      101.85335       45.32908
H         53.77984      102.32724       46.40815
H         53.86238      100.65571       45.73524
N         53.39022      103.47758       43.90876
C         52.55691      103.99510       42.83589
C         52.86743      103.26888       41.52488
O         53.97989      103.38858       41.02935
C         52.73871      105.52742       42.69791
C         51.63983      106.13805       41.88333
O         51.64742      107.32821       41.62412
O         50.61034      105.36860       41.49905
H         54.02927      104.11527       44.40917
H         51.50770      103.80488       43.15293
H         53.73391      105.75087       42.25381
H         52.68667      106.00921       43.69837
N         51.94912      102.43151       40.95670
C         52.25307      101.57936       39.80794
C         52.41975      102.36966       38.51923
O         53.52243      102.39461       37.98974
C         51.17721      100.49760       39.64354
H         51.04434      102.31251       41.43287
H         53.20266      101.04097       40.03025
H         50.17782      100.94078       39.45283
H         51.43924       99.81740       38.80562
H         51.11176       99.89554       40.57527
N         51.36440      103.01353       37.93332
C         51.49523      103.77714       36.68589
C         52.41268      104.98955       36.83777
O         52.75090      105.58225       35.82239
C         50.10684      104.20407       36.11831
C         49.28883      105.02615       37.07873
O         48.15232      105.37360       36.80219
O         49.80387      105.29118       38.28365
H         50.43778      102.92442       38.37374
H         51.95568      103.10297       35.92941
H         49.52728      103.28360       35.89036
H         50.24184      104.76886       35.17047
N         52.86676      105.41355       38.05600
C         53.81291      106.50208       38.21386
C         53.27311      107.80854       37.69230
O         53.87750      108.36705       36.78737
H         52.56212      104.94083       38.91759
H         54.75382      106.23719       37.68197
H         54.05745      106.62723       39.29126
N         52.15064      108.36709       38.23235
C         51.60929      109.65187       37.78228
C         51.64873      110.72084       38.86974
O         51.37267      111.86982       38.55388
C         50.17663      109.48305       37.23140
C         49.15785      109.20098       38.30919
N         48.10833      110.02989       38.51231
O         49.28144      108.21653       39.01045
H         51.68082      107.85574       38.99224
H         52.23369      110.03138       36.94519
H         50.16657      108.65893       36.48495
H         49.88630      110.41708       36.70528
H         47.97369      110.87050       37.93428
H         47.42186      109.82757       39.25278
N         51.95315      110.42431       40.16747
C         52.03466      111.41505       41.22558
C         50.94772      111.26125       42.27044
O         51.02669      111.97066       43.26363
H         52.14239      109.45496       40.44430
H         51.96681      112.45138       40.83024
H         53.03001      111.30837       41.70795
N         49.87274      110.42854       42.10461
C         48.76775      110.35660       43.06447
C         48.54535      108.91190       43.52106
O         49.15000      108.00366       42.96869
C         47.52501      111.01878       42.40000
C         46.30002      111.16768       43.30917
O         47.89728      112.30506       41.96917
H         49.78510      109.88102       41.23580
H         49.02014      110.94934       43.97074
H         47.23883      110.40132       41.51866
H         47.30778      112.54197       41.20564
H         45.50308      111.72306       42.77048
H         45.86632      110.18567       43.57502
H         46.56499      111.74075       44.22437
N         47.71113      108.63716       44.56438
C         47.44675      107.30427       45.09929
C         45.97847      106.95427       44.89844
O         45.10749      107.75037       45.22138
C         47.86961      107.25759       46.59946
C         49.41143      107.37915       46.76818
C         47.34702      106.00690       47.33412
C         50.22661      106.19665       46.21438
H         47.25099      109.42195       45.04614
H         48.02716      106.53289       44.56369
H         47.40414      108.12913       47.11228
H         49.64093      107.46140       47.85274
H         49.76680      108.31247       46.28178
H         47.67495      106.02147       48.39529
H         46.23775      105.99630       47.34045
H         47.69949      105.07222       46.85699
H         49.94979      105.24570       46.71496
H         50.10238      106.08092       45.12012
H         51.30558      106.36925       46.40778
N         45.65018      105.71455       44.42942
C         44.29003      105.22736       44.22306
C         43.89279      104.29511       45.35570
O         44.68763      104.08840       46.25943
C         44.23649      104.45400       42.88734
C         44.66477      105.29004       41.72125
O         44.03778      106.29144       41.41702
O         45.73770      104.92293       40.99414
H         46.41156      105.04187       44.26596
H         43.56694      106.07238       44.21198
H         43.21129      104.07857       42.68935
H         44.91777      103.57530       42.95703
N         42.66491      103.69862       45.38131
C         42.25799      102.77325       46.43456
C         43.17958      101.55110       46.50066
O         43.68490      101.30804       47.58662
C         40.76961      102.36098       46.29650
C         40.40541      101.29387       47.30468
C         40.43129      101.56559       48.68328
C         40.07210       99.99919       46.86638
C         40.13043      100.55771       49.60520
C         39.77864       98.99417       47.79150
C         39.80753       99.27281       49.15987
H         41.99445      103.91339       44.62750
H         42.32972      103.30337       47.41206
H         40.55719      101.98545       45.28532
H         40.11240      103.24793       46.42442
H         40.68758      102.55365       49.04354
H         40.05750       99.76105       45.80970
H         40.15350      100.77100       50.66583
H         39.53490       97.99747       47.44667
H         39.58260       98.49200       49.87469
N         43.44569      100.71675       45.44174
C         44.30935       99.54297       45.54267
C         45.68286       99.87435       46.09317
O         46.14868       99.21533       47.01181
C         44.44177       99.05574       44.09024
C         43.11901       99.47184       43.50089
C         42.94996      100.86785       44.08721
H         43.79624       98.77426       46.16329
H         45.20963       99.64983       43.54442
H         44.70115       97.98043       43.98875
H         43.05703       99.42603       42.39301
H         42.33159       98.81279       43.93469
H         43.57691      101.61894       43.56108
H         41.88796      101.12273       43.99193
N         46.37751      100.91364       45.55745
C         47.72518      101.30664       45.95570
C         47.78574      101.70385       47.42175
O         48.81522      101.49400       48.04757
C         48.20355      102.48570       45.08399
C         48.26784      102.11893       43.58478
C         48.59237      103.29807       42.71922
O         48.79308      104.51547       43.25516
O         48.64310      103.15828       41.50802
H         45.90331      101.45839       44.82252
H         48.41865      100.45253       45.78876
H         49.21458      102.81653       45.41105
H         47.49554      103.32559       45.23321
H         47.29346      101.73688       43.22295
H         49.03059      101.32574       43.43153
N         46.72046      102.28527       48.03590
C         46.73098      102.67094       49.42860
H         45.74471      103.10336       49.70516
H         46.91712      101.78175       50.06719
H         47.51645      103.43474       49.60542
H         45.86394      102.45305       47.50174
Ca        48.89651      105.91094       40.20373
O         46.43478      107.38139       39.71697
H         46.08226      107.50617       38.80077
H         45.86135      107.94921       40.28982

Ca 1.0



