%chk=holoCaM-CaMKII.loop2.water2.frame448.chk
%nprocshared=20
%mem=10GB
%nosave
#b3lyp/svp scf=(tight,noincore,xqc) Test 
#IOP(5/87=12) Density=Current Pop=(MK,readradii) iop(6/33=2) iop(6/42=6)

holoCaM-CaMKII.loop2.water2.frame448 

   -2  1 
C         62.67557       41.42495       30.54912
C         63.38445       40.16194       30.15407
O         63.46478       39.86070       28.97357
H         61.82888       41.18980       31.22650
H         63.38757       42.09410       31.07928
H         62.28963       41.96166       29.65628
N         63.94799       39.37702       31.11025
C         64.74752       38.19526       30.81042
C         63.96048       37.12007       30.07666
O         62.91429       36.70142       30.55183
C         65.33262       37.60549       32.10565
C         66.23869       36.44877       31.79726
O         67.19801       36.61069       31.06295
O         65.98014       35.22667       32.29887
H         63.84631       39.67001       32.09499
H         65.60998       38.51958       30.18565
H         64.51356       37.27520       32.78089
H         65.92790       38.38512       32.62805
N         64.47630       36.58076       28.93532
C         63.86664       35.49793       28.17779
C         64.75717       34.24922       28.12607
O         64.33000       33.27634       27.51956
C         63.58698       36.00407       26.75631
H         65.37148       36.94522       28.59265
H         62.89910       35.20024       28.63643
H         62.92081       36.89283       26.79329
H         64.53471       36.29743       26.25337
H         63.08897       35.22078       26.14665
N         66.00019       34.19601       28.70408
C         66.89577       33.04181       28.58476
C         67.64724       32.72463       29.88551
O         67.55820       31.58687       30.32543
C         67.81969       33.16999       27.34597
C         68.65984       34.40472       27.24417
O         69.36772       34.57489       26.26453
O         68.58917       35.36187       28.17193
H         66.36737       35.03172       29.17094
H         66.29788       32.13232       28.34779
H         67.17214       33.16863       26.44108
H         68.48132       32.27901       27.29259
N         68.40566       33.64916       30.55280
C         69.17536       33.36994       31.75549
C         70.66003       33.68550       31.60777
O         71.37244       33.50174       32.58458
H         68.43027       34.61752       30.24000
H         69.08069       32.30427       32.05473
H         68.76803       33.99305       32.57978
N         71.21672       34.12810       30.43740
C         72.66114       34.33273       30.27699
C         73.24485       35.45360       31.14588
O         74.45998       35.49518       31.27996
C         73.02560       34.54116       28.78381
C         72.42094       35.77691       28.16284
N         72.60438       36.04781       26.85119
O         71.75266       36.53582       28.83932
H         70.61428       34.24420       29.61138
H         73.14999       33.38417       30.59266
H         72.66045       33.65997       28.21329
H         74.12973       34.59243       28.66986
H         73.15616       35.41625       26.25411
H         72.18250       36.88888       26.42966
N         72.46251       36.40152       31.74199
C         72.97340       37.42705       32.64756
C         72.84751       38.85089       32.12423
O         73.14573       39.75905       32.88716
H         71.45207       36.39110       31.56441
H         74.04734       37.26438       32.88640
H         72.41111       37.33995       33.60174
N         72.50258       39.13066       30.83216
C         72.50986       40.47902       30.26096
C         71.22952       40.79142       29.49325
O         70.63389       39.89372       28.91431
C         73.70479       40.61849       29.28468
C         75.04788       40.49695       30.00943
O         73.64620       39.63440       28.28179
H         72.32737       38.35193       30.19338
H         72.64175       41.24908       31.05421
H         73.69294       41.63495       28.82370
H         73.01604       39.95907       27.58765
H         75.87789       40.62468       29.28230
H         75.13906       41.28590       30.78639
H         75.15476       39.50140       30.48936
N         70.81387       42.08628       29.36319
C         69.71065       42.50036       28.49309
C         70.13265       42.36229       27.03258
O         71.21157       42.81694       26.67609
C         69.25920       43.96804       28.78990
C         68.75009       44.07518       30.25544
C         68.14759       44.39703       27.80282
C         68.25473       45.46895       30.65104
H         71.33348       42.81497       29.87649
H         68.81815       41.86912       28.69815
H         70.12330       44.65534       28.64987
H         69.57403       43.81126       30.95034
H         67.91898       43.35452       30.42028
H         67.25568       43.74351       27.90836
H         67.84649       45.45106       27.95684
H         68.50547       44.35194       26.75597
H         69.05153       46.22543       30.49446
H         67.35024       45.75523       30.07625
H         67.96634       45.46557       31.72307
N         69.27726       41.81993       26.11942
C         69.56823       41.67033       24.69029
C         68.63330       42.53826       23.87352
O         67.86757       43.29700       24.45083
C         69.34617       40.21090       24.28402
C         69.98522       39.29899       25.25917
O         69.14709       38.70280       26.10319
O         71.19517       39.19029       25.37404
H         68.35326       41.50724       26.44901
H         70.62054       41.95165       24.46668
H         69.67371       39.97420       23.25090
H         68.24801       40.02041       24.33858
N         68.62886       42.48058       22.51450
C         67.75800       43.31521       21.70363
C         66.26139       43.05155       21.94186
O         65.58638       44.00985       22.28602
C         68.11090       43.20370       20.20738
C         67.31680       44.20839       19.41026
C         67.50981       45.58556       19.62468
C         66.36614       43.78612       18.46752
C         66.75938       46.52262       18.91396
C         65.61483       44.72918       17.75892
C         65.81055       46.09549       17.98292
H         69.29706       41.85285       22.03959
H         67.97407       44.36680       21.99659
H         67.92804       42.17519       19.84757
H         69.19285       43.40795       20.05423
H         68.23979       45.93545       20.34413
H         66.19689       42.73101       18.29125
H         66.91301       47.57952       19.08949
H         64.87709       44.40094       17.03912
H         65.22707       46.82420       17.43653
N         65.64351       41.83035       21.77688
C         64.19899       41.64227       21.91798
C         63.71576       41.70703       23.35816
O         62.52003       41.55176       23.57262
C         63.96041       40.25835       21.30758
C         65.22300       39.52821       21.70516
C         66.29109       40.58441       21.41694
H         63.63305       42.39134       21.32090
H         63.00149       39.77121       21.59056
H         63.98241       40.35562       20.19787
H         65.17516       39.35608       22.80524
H         65.38907       38.55245       21.20207
H         67.18610       40.35538       22.02994
H         66.53198       40.59782       20.33506
N         64.56369       41.95962       24.38996
C         64.13384       42.09750       25.76894
C         63.94001       43.57033       26.04789
O         62.84436       43.96696       26.41870
C         65.17650       41.45610       26.70155
C         65.36018       39.96307       26.37299
C         66.39350       39.29134       27.22437
O         66.66345       38.12178       27.01272
O         67.04469       39.95538       28.19750
H         65.56078       42.11851       24.20146
H         63.16167       41.57915       25.93766
H         64.85839       41.58298       27.75728
H         66.14697       41.97605       26.57482
H         65.68845       39.85545       25.31757
H         64.39443       39.42806       26.49832
N         64.95064       44.45368       25.82540
C         64.78369       45.87990       25.97743
H         65.72924       46.39760       25.70767
H         63.98295       46.23752       25.29434
H         64.52172       46.12430       27.02669
H         65.86143       44.11010       25.50134
Ca        69.47926       37.30235       27.72430
O         69.45328       37.78588       32.06919
H         69.33988       36.87444       32.44053
H         69.93899       38.28060       32.77401
O         68.00823       40.17115       31.16674
H         67.79233       40.20886       32.13214
H         67.27579       40.67413       30.73146

Ca 1.0



