%chk=holoCaM-CaMKII.loop2.water1.frame8.chk
%nprocshared=20
%mem=10GB
%nosave
#b3lyp/svp scf=(tight,noincore,xqc) Test 
#IOP(5/87=12) Density=Current Pop=(MK,readradii) iop(6/33=2) iop(6/42=6)

holoCaM-CaMKII.loop2.water1.frame8 

   -2  1 
C         65.45049       77.30203        7.58434
C         66.21179       76.69104        6.45012
O         67.25991       76.11707        6.68914
H         64.47199       76.78600        7.67631
H         66.00628       77.17398        8.53924
H         65.28737       78.38335        7.40293
N         65.74652       76.78010        5.17413
C         66.38711       76.10735        4.05267
C         67.12335       77.11516        3.18242
O         66.50194       78.04201        2.68231
C         65.31273       75.34229        3.25164
C         65.88826       74.43887        2.20266
O         65.14538       73.81294        1.46448
O         67.21578       74.27256        2.09998
H         64.89133       77.32905        4.99527
H         67.11643       75.35936        4.43462
H         64.62832       76.07451        2.77056
H         64.71748       74.70384        3.93925
N         68.46488       76.97778        2.96215
C         69.26905       77.89033        2.15688
C         69.88670       77.21195        0.93368
O         70.52578       77.90887        0.15764
C         70.37899       78.47362        3.03975
H         68.94915       76.18634        3.39739
H         68.63952       78.72637        1.78443
H         71.04352       77.66256        3.41286
H         70.99442       79.20240        2.47081
H         69.93627       78.99558        3.91437
N         69.75305       75.87386        0.69225
C         70.32135       75.18841       -0.46349
C         69.22368       74.54034       -1.31087
O         69.14428       74.87050       -2.48630
C         71.45970       74.23079       -0.02380
C         71.19537       73.36626        1.17972
O         71.96018       73.50422        2.27987
O         70.32588       72.52039        1.16881
H         69.24592       75.29118        1.36407
H         70.82691       75.91170       -1.14287
H         72.32501       74.87006        0.25659
H         71.77753       73.60474       -0.88574
N         68.33457       73.63880       -0.80201
C         67.27555       73.00685       -1.58433
C         67.38261       71.48910       -1.60700
O         66.51590       70.85642       -2.19329
H         68.38357       73.39509        0.19075
H         67.27355       73.36606       -2.63572
H         66.29937       73.28432       -1.13208
N         68.41996       70.83381       -1.01040
C         68.61085       69.38328       -1.01975
C         67.57671       68.58143       -0.20905
O         67.72317       67.36842       -0.14800
C         70.05616       69.05333       -0.56153
C         70.40320       69.42616        0.85931
N         71.65618       69.20771        1.31465
O         69.57411       69.93033        1.59966
H         69.16390       71.39766       -0.58963
H         68.55594       69.03747       -2.07575
H         70.75929       69.59669       -1.23190
H         70.24390       67.96642       -0.69003
H         72.37539       68.79450        0.70429
H         71.91158       69.45665        2.27717
N         66.49298       69.15376        0.39671
C         65.46342       68.38633        1.09097
C         65.83504       67.91290        2.48928
O         65.00255       67.25886        3.10254
H         66.31729       70.15631        0.28375
H         65.15711       67.52755        0.45358
H         64.56960       69.03440        1.21693
N         67.03003       68.21010        3.07390
C         67.42017       67.79369        4.42438
C         67.77545       69.01013        5.28251
O         67.69275       70.12597        4.78946
C         68.63352       66.83231        4.31714
C         68.26761       65.55531        3.55603
O         69.70709       67.45592        3.65882
H         67.71506       68.75240        2.53736
H         66.59290       67.25189        4.93487
H         68.95586       66.49964        5.32939
H         70.13881       68.06108        4.31569
H         69.14649       64.87732        3.51675
H         67.43794       65.02527        4.07097
H         67.95788       65.78569        2.51468
N         68.23573       68.86904        6.56292
C         68.74870       69.98789        7.35674
C         70.25041       69.80199        7.50105
O         70.68118       68.72146        7.88515
C         68.09698       70.10948        8.76948
C         66.55054       70.08554        8.70986
C         68.59242       71.41826        9.43561
C         65.89573       70.18417       10.09573
H         68.31082       67.92153        6.96464
H         68.54946       70.94814        6.83471
H         68.42196       69.24255        9.38681
H         66.23152       69.12026        8.26238
H         66.17036       70.91211        8.07146
H         69.69688       71.45437        9.48720
H         68.23795       72.29942        8.85659
H         68.24290       71.51811       10.48056
H         66.08065       71.17254       10.56492
H         64.79626       70.07207       10.00288
H         66.28054       69.38609       10.76651
N         71.10498       70.83247        7.25507
C         72.55650       70.72785        7.35963
C         73.04621       71.46861        8.58702
O         72.23081       72.00998        9.32105
C         73.20122       71.29482        6.07966
C         72.79081       70.51941        4.86298
O         73.63337       69.95861        4.18117
O         71.49435       70.44667        4.51148
H         70.71131       71.75467        7.01988
H         72.87184       69.66874        7.48704
H         74.30757       71.25581        6.16361
H         72.90155       72.35811        5.94646
N         74.37178       71.48732        8.91036
C         74.87647       72.15607       10.10158
C         74.64997       73.66601       10.02950
O         74.15448       74.19886       11.00957
C         76.35980       71.83222       10.37667
C         76.74394       72.27367       11.76866
C         77.53873       73.41328       11.96889
C         76.29472       71.54318       12.88461
C         77.87244       73.81821       13.26566
C         76.64359       71.94238       14.17733
C         77.42930       73.08129       14.36815
H         75.03742       70.97411        8.31221
H         74.31507       71.73986       10.97032
H         77.01523       72.30947        9.63012
H         76.54338       70.73783       10.30593
H         77.88319       73.99652       11.12433
H         75.68451       70.65766       12.75201
H         78.47439       74.70439       13.41635
H         76.30355       71.36915       15.03066
H         77.69355       73.39277       15.37035
N         74.95251       74.43934        8.92810
C         74.68011       75.87399        8.85418
C         73.21780       76.26309        9.02734
O         72.94519       77.45550        9.07368
C         75.10719       76.26203        7.43194
C         76.20386       75.26742        7.14917
C         75.60306       73.98414        7.71639
H         75.31196       76.36511        9.62786
H         74.28580       76.01334        6.71787
H         75.37024       77.33375        7.30058
H         76.51515       75.20059        6.08521
H         77.08559       75.55287        7.76804
H         74.83373       73.55956        7.03810
H         76.42712       73.26864        7.86412
N         72.22489       75.32666        9.09940
C         70.81463       75.64943        9.25142
C         70.27115       75.19485       10.60084
O         69.18326       75.62339       10.95826
C         69.98640       74.96576        8.14934
C         70.54182       75.15836        6.73052
C         69.58132       74.60090        5.67860
O         70.22831       74.50049        4.44386
O         69.11464       73.32389        6.00150
H         72.46414       74.33776        9.01295
H         70.68173       76.75166        9.18785
H         68.94759       75.33881        8.22698
H         69.97567       73.87040        8.34088
H         71.52140       74.63604        6.65643
H         70.69279       76.23638        6.51056
N         70.94332       74.29987       11.38300
C         70.47674       73.83219       12.66902
H         69.53122       74.31957       12.98036
H         70.31756       72.73398       12.62071
H         71.25536       74.04441       13.43195
H         71.82125       73.88966       11.05968
Ca        69.49668       72.40256        3.97163
O         66.83137       71.42830        2.62556
H         66.91920       71.75331        1.69656
H         65.88059       71.16891        2.71967

Ca 1.0



