%chk=holoCaM-CaMKII.loop4.water1.frame472.chk
%nprocshared=20
%mem=10GB
%nosave
#b3lyp/svp scf=(tight,noincore,xqc) Test 
#IOP(5/87=12) Density=Current Pop=(MK,readradii) iop(6/33=2) iop(6/42=6)

holoCaM-CaMKII.loop4.water1.frame472 

   -3  1 
C         73.78544       49.36718       61.84383
C         74.00118       48.27460       60.83684
O         73.32752       47.26026       60.91001
H         74.45320       50.23444       61.65192
H         72.73398       49.71891       61.79205
H         73.99618       48.98194       62.86264
N         74.92027       48.42782       59.84791
C         75.17866       47.43051       58.81481
C         75.80445       46.16813       59.41693
O         76.82005       46.28957       60.08766
C         76.13151       48.05225       57.77459
C         76.29863       47.22070       56.54611
O         77.07358       47.58903       55.68482
O         75.57821       46.10259       56.35815
H         75.43880       49.32006       59.81067
H         74.22049       47.20351       58.29769
H         77.12395       48.22968       58.24350
H         75.72536       49.03117       57.43549
N         75.26713       44.92613       59.20204
C         75.80624       43.68856       59.78910
C         76.39766       42.73929       58.72818
O         77.07220       41.79532       59.11437
C         74.68484       43.01946       60.65885
C         74.27958       43.98822       61.80268
C         75.09625       41.64904       61.23405
C         73.08087       43.53041       62.63587
H         74.42629       44.85437       58.61247
H         76.66451       43.93585       60.45140
H         73.80050       42.84828       60.00471
H         73.98914       44.95807       61.36284
H         75.14764       44.16134       62.47583
H         74.27415       41.19568       61.82101
H         75.28905       40.91850       60.42430
H         75.99583       41.74488       61.87725
H         73.29820       42.59993       63.19587
H         72.83774       44.31517       63.38348
H         72.19537       43.37741       61.98398
N         76.22502       42.93144       57.38985
C         76.81064       42.06978       56.34879
C         77.73652       42.84621       55.38948
O         78.29800       42.22826       54.49561
C         75.70753       41.29478       55.57395
C         74.73938       42.17468       54.84082
O         74.80151       43.49776       55.03892
O         73.92516       41.69295       54.07251
H         75.64635       43.72266       57.10567
H         77.44582       41.28668       56.81615
H         75.13754       40.64073       56.26853
H         76.21114       40.63954       54.82952
N         77.99205       44.17774       55.54824
C         78.97345       44.93343       54.77943
C         78.66294       45.16988       53.30927
O         79.51283       44.85189       52.48943
H         77.55778       44.67841       56.33077
H         79.96606       44.44119       54.88317
H         79.06885       45.93962       55.23889
N         77.51749       45.79784       52.90153
C         77.29356       46.25177       51.51887
C         76.93339       47.73970       51.44614
O         76.58849       48.21587       50.37370
C         76.26777       45.35019       50.80586
C         74.84809       45.38772       51.28636
O         74.07219       44.53837       50.88024
O         74.39811       46.29480       52.16497
H         76.78778       45.98798       53.60374
H         78.22239       46.12279       50.92047
H         76.64124       44.30876       50.91796
H         76.25080       45.58379       49.71938
N         77.03180       48.54328       52.54208
C         76.70055       49.95520       52.56866
C         75.21668       50.21081       52.44225
O         74.83421       51.04397       51.63560
H         77.40810       48.15872       53.41305
H         77.28490       50.51199       51.80354
H         76.99472       50.35524       53.56471
N         74.33868       49.58003       53.27880
C         72.90953       49.91240       53.39962
C         72.24670       49.14935       54.54848
O         72.87362       48.27971       55.14043
C         72.12173       49.79952       52.06158
C         72.06392       48.44394       51.34024
C         71.17089       47.42618       52.00738
N         70.00627       47.05727       51.42205
O         71.49337       46.92433       53.07091
H         74.74811       48.88589       53.92137
H         72.86246       50.98346       53.69716
H         72.57396       50.50787       51.34248
H         71.08189       50.16221       52.20745
H         73.07936       48.04590       51.15981
H         71.63161       48.65613       50.33866
H         69.70930       47.46327       50.52342
H         69.38228       46.37572       51.87187
N         70.98506       49.47569       54.96351
C         70.35288       48.86791       56.13355
C         68.99546       48.26747       55.76847
O         68.08386       49.00824       55.42755
C         70.24979       49.94168       57.25912
C         69.53836       49.42290       58.51563
C         71.65301       50.43458       57.66392
H         70.48372       50.23892       54.48438
H         70.98511       48.05143       56.53099
H         69.66843       50.80949       56.87576
H         69.48147       50.22669       59.28061
H         68.49964       49.12467       58.28108
H         70.08545       48.56417       58.95209
H         72.18698       50.88159       56.80026
H         71.57827       51.21614       58.44960
H         72.26321       49.59297       58.06094
N         68.79358       46.91566       55.84315
C         67.49030       46.26732       55.64948
C         66.57113       46.55823       56.82704
O         66.98167       47.20286       57.77373
C         67.64950       44.71861       55.56158
C         68.10654       44.23708       54.20829
N         69.31241       44.56391       53.70457
O         67.36122       43.52402       53.55098
H         69.60022       46.32218       56.08491
H         67.00547       46.63145       54.71658
H         66.66725       44.22628       55.71633
H         68.31268       44.34407       56.37135
H         69.97507       45.14509       54.23034
H         69.58313       44.22020       52.77166
N         65.30725       46.04802       56.84827
C         64.44035       46.08248       58.02193
C         65.08936       45.32310       59.17274
O         65.22444       45.88784       60.24894
C         63.07510       45.44578       57.67248
C         62.16373       45.30642       58.87099
C         61.75388       46.43038       59.60809
C         61.72142       44.03111       59.26376
C         60.92100       46.27709       60.72206
C         60.88756       43.88117       60.37342
C         60.48530       45.00445       61.10831
O         59.68308       44.87231       62.18380
H         64.96524       45.56083       56.00579
H         64.26078       47.13741       58.32777
H         63.25288       44.44041       57.23048
H         62.57291       46.06470       56.89765
H         62.08112       47.42279       59.32592
H         62.02296       43.14889       58.71249
H         60.61457       47.14854       61.28668
H         60.55716       42.89089       60.66087
H         59.36156       44.00907       62.48160
N         65.51276       44.03523       59.00888
C         66.10646       43.23461       60.08008
C         67.28352       43.94131       60.72975
O         67.31448       44.04160       61.94844
C         66.49375       41.81460       59.58621
C         67.59758       41.75916       58.51333
C         67.87802       40.34183       58.10510
O         68.31729       39.45093       59.01517
O         67.72896       39.99452       56.94449
H         65.40140       43.60743       58.07761
H         65.33290       43.07879       60.86564
H         65.57850       41.32843       59.18208
H         66.83114       41.22297       60.46628
H         68.54425       42.17304       58.91123
H         67.29057       42.34521       57.62159
N         68.26408       44.49714       59.96885
C         69.41339       45.20717       60.52140
C         68.94864       46.36829       61.38646
O         69.33878       46.43411       62.54372
C         70.34493       45.67371       59.37927
C         70.97821       44.46235       58.65966
C         71.90461       44.82482       57.53506
O         72.50883       43.84122       56.84369
O         72.12467       45.98657       57.23903
H         68.16437       44.43778       58.94484
H         70.00547       44.51951       61.16629
H         71.16396       46.29089       59.80482
H         69.77155       46.29090       58.65435
H         70.18938       43.81467       58.23023
H         71.55666       43.86905       59.39957
N         68.06496       47.28317       60.90622
C         67.51339       48.37043       61.68850
H         66.41165       48.24257       61.76159
H         67.92832       48.40686       62.71689
H         67.72522       49.33470       61.18269
H         67.72980       47.18207       59.94669
Ca        74.05701       45.35636       54.11328
O         71.79720       43.15760       53.35141
H         71.36083       42.47856       52.77797
H         71.51489       42.92174       54.27145

Ca 1.0



