%chk=holoCaM-CaMKII.loop2.water0.frame127.chk
%nprocshared=20
%mem=10GB
%nosave
#b3lyp/svp scf=(tight,noincore,xqc) Test 
#IOP(5/87=12) Density=Current Pop=(MK,readradii) iop(6/33=2) iop(6/42=6)

holoCaM-CaMKII.loop2.water0.frame127 

   -2  1 
C         32.77821       67.41096       78.61145
C         32.35852       68.56710       77.74755
O         33.02197       68.83984       76.75853
H         33.79789       67.58728       79.01127
H         32.08528       67.27243       79.46927
H         32.77456       66.47779       78.01022
N         31.24396       69.28358       78.06146
C         30.73031       70.39472       77.26271
C         31.74957       71.53102       77.24371
O         31.91120       72.21378       78.24603
C         29.38325       70.83189       77.90002
C         28.56011       71.96634       77.35159
O         27.67666       72.40360       78.06670
O         28.70648       72.50653       76.13077
H         30.71765       68.99545       78.90138
H         30.55442       70.01513       76.23538
H         29.63232       71.13046       78.94163
H         28.70679       69.95221       77.95886
N         32.52249       71.74455       76.14118
C         33.49747       72.82408       76.03686
C         32.77651       74.15105       75.96476
O         33.06561       75.03946       76.75367
C         34.37330       72.65053       74.78429
H         32.42976       71.09388       75.35249
H         34.19248       72.79459       76.90643
H         35.12716       73.46591       74.72693
H         34.91718       71.68265       74.83172
H         33.77317       72.67271       73.85380
N         31.81232       74.34423       75.01899
C         31.11080       75.61074       74.82852
C         30.26942       76.02328       76.02993
O         29.80498       77.15524       76.04547
C         30.15195       75.51220       73.62010
C         30.83425       75.09126       72.35008
O         30.45915       73.95286       71.73353
O         31.71951       75.77713       71.86672
H         31.59652       73.55832       74.38698
H         31.87702       76.39371       74.63556
H         29.65010       76.48871       73.44705
H         29.37441       74.75816       73.85992
N         29.94569       75.14278       77.01937
C         29.03548       75.45714       78.10771
C         27.69994       75.95797       77.58916
O         27.28137       77.02435       78.01544
H         30.31054       74.18288       76.98359
H         29.49220       76.22082       78.77423
H         28.87691       74.54273       78.71596
N         27.00409       75.27158       76.63156
C         25.75500       75.75317       76.04433
C         24.59584       74.77141       76.19373
O         23.48821       75.14320       75.82774
C         25.97477       76.10927       74.55578
C         26.11542       74.90661       73.64364
N         25.25133       74.72417       72.61704
O         27.00944       74.09581       73.82431
H         27.40878       74.41152       76.25943
H         25.45757       76.69194       76.55871
H         26.87591       76.75487       74.46523
H         25.10502       76.70985       74.21308
H         24.48941       75.39416       72.43842
H         25.34503       73.91270       71.98986
N         24.76155       73.50742       76.68765
C         23.67481       72.55558       76.84818
C         23.82140       71.31042       75.99031
O         22.93579       70.47395       76.07586
H         25.69172       73.18848       76.97296
H         22.69851       73.01631       76.58274
H         23.62242       72.25746       77.91690
N         24.85794       71.12525       75.11232
C         24.90998       69.98992       74.18306
C         26.19571       69.18961       74.31220
O         27.10273       69.60451       75.01700
C         24.82204       70.52723       72.73182
C         23.52808       71.30904       72.48903
O         25.92735       71.35687       72.47471
H         25.59634       71.83865       75.03840
H         24.06238       69.29508       74.36501
H         24.83927       69.66060       72.03132
H         25.99362       71.45550       71.48961
H         22.64833       70.65898       72.67547
H         23.47359       72.20033       73.14959
H         23.49631       71.65682       71.43466
N         26.34399       68.03655       73.58534
C         27.61873       67.34834       73.42370
C         27.90897       67.29706       71.92851
O         27.33888       66.46942       71.23105
C         27.62014       65.92430       74.06451
C         27.28786       66.01317       75.57716
C         28.98754       65.24133       73.83717
C         27.25259       64.65681       76.29057
H         25.53588       67.67304       73.05826
H         28.42262       67.93343       73.92203
H         26.83669       65.30528       73.57201
H         26.28219       66.47125       75.69370
H         28.02869       66.66296       76.09192
H         28.98892       64.20055       74.21779
H         29.22004       65.16444       72.75632
H         29.79972       65.81224       74.33539
H         26.94717       64.80326       77.34795
H         26.52553       63.97524       75.80077
H         28.25402       64.18001       76.30540
N         28.75134       68.20603       71.36144
C         29.10421       68.20380       69.94227
C         29.98497       67.00174       69.62296
O         30.30834       66.24512       70.53144
C         29.86014       69.50328       69.57128
C         29.02290       70.74555       69.74378
O         28.57533       71.11274       70.95875
O         28.77132       71.44920       68.77819
H         29.13623       68.93772       71.96680
H         28.17606       68.16005       69.32819
H         30.16079       69.45404       68.50370
H         30.77999       69.59640       70.18809
N         30.41402       66.74794       68.35146
C         31.29440       65.62833       68.03954
C         32.67738       65.79925       68.67159
O         33.12408       64.84389       69.28163
C         31.41159       65.34532       66.52737
C         32.21247       64.07906       66.29877
C         33.45238       64.12709       65.63981
C         31.73579       62.83923       66.76939
C         34.20291       62.95961       65.46362
C         32.48853       61.67641       66.58974
C         33.72217       61.73634       65.93900
H         30.08438       67.35158       67.58123
H         30.81962       64.71635       68.46666
H         31.88230       66.19545       66.00364
H         30.39982       65.20962       66.08839
H         33.84506       65.06791       65.27552
H         30.78345       62.76935       67.27965
H         35.16087       63.00363       64.96271
H         32.11591       60.72935       66.95922
H         34.30553       60.83470       65.80480
N         33.42462       66.95595       68.60060
C         34.72240       67.11252       69.26291
C         34.68975       66.93776       70.77556
O         35.74510       67.00766       71.39450
C         35.11654       68.56563       68.95717
C         34.43875       68.80634       67.63052
C         33.08131       68.15099       67.86375
H         35.42210       66.38652       68.79481
H         34.60973       69.24981       69.67917
H         36.20819       68.76949       68.99600
H         34.38918       69.87016       67.31535
H         34.98744       68.22202       66.85690
H         32.43838       68.78961       68.50415
H         32.60829       67.97803       66.88332
N         33.51548       66.76192       71.44287
C         33.38080       66.68884       72.88523
C         32.84594       65.33487       73.33507
O         32.86336       65.07498       74.52854
C         32.40152       67.78869       73.30361
C         32.85927       69.17778       72.81309
C         31.78953       70.18679       73.01882
O         31.96539       71.35219       72.70559
O         30.64314       69.81876       73.59672
H         32.63687       66.75963       70.91839
H         34.36844       66.84323       73.37265
H         32.24895       67.79641       74.40506
H         31.42047       67.55215       72.82694
H         33.06926       69.17508       71.72537
H         33.77411       69.48254       73.36514
N         32.34397       64.42866       72.44387
C         31.87340       63.10958       72.80010
H         30.79659       63.02189       72.54504
H         32.43828       62.36086       72.20460
H         32.01381       62.88577       73.87608
H         32.26621       64.66595       71.45433
Ca        29.40345       71.42388       74.36838

Ca 1.0



