%chk=holoCaM-CaMKII.loop1.water2.frame416.chk
%nprocshared=20
%mem=10GB
%nosave
#b3lyp/svp scf=(tight,noincore,xqc) Test 
#IOP(5/87=12) Density=Current Pop=(MK,readradii) iop(6/33=2) iop(6/42=6)

holoCaM-CaMKII.loop1.water2.frame416 

   0  1 
C         55.72822       45.22219       30.63292
C         56.83519       44.50534       29.92591
O         56.58076       43.55848       29.19993
H         54.75025       44.73961       30.43175
H         55.92501       45.21152       31.72566
H         55.69321       46.27654       30.28268
N         58.11030       44.92929       30.10143
C         59.26992       44.34664       29.44723
C         59.76274       43.16688       30.27488
O         60.68266       43.31628       31.06643
C         60.29956       45.48055       29.28356
C         61.54636       45.15054       28.54480
O         61.75703       44.04255       28.08624
O         62.45378       46.12720       28.39743
H         58.26286       45.73318       30.73179
H         59.01417       44.01517       28.41500
H         60.59779       45.85892       30.28216
H         59.81478       46.30629       28.71639
N         59.13867       41.96112       30.16432
C         59.46636       40.78242       30.96227
C         60.90668       40.33554       30.76830
O         61.61467       40.19123       31.75546
C         58.50051       39.61881       30.62437
C         57.01918       39.88659       30.98577
C         56.83056       40.14316       32.49397
C         55.36528       40.11961       32.95379
N         54.58269       41.23325       32.41863
H         58.37470       41.88279       29.47999
H         59.34775       41.02139       32.03830
H         58.81877       38.71502       31.18953
H         58.56884       39.37514       29.54036
H         56.45302       38.97003       30.70949
H         56.60448       40.72972       30.39394
H         57.28248       41.11482       32.78629
H         57.35047       39.33119       33.04585
H         55.35782       40.18530       34.06474
H         54.89889       39.15117       32.66744
H         54.52775       41.18418       31.37709
H         53.61306       41.17399       32.80689
H         55.00484       42.14311       32.71536
N         61.40537       40.08128       29.52873
C         62.78491       39.64051       29.29961
C         63.80282       40.77945       29.36168
O         64.98625       40.49646       29.23081
C         62.88859       38.79809       28.00664
C         62.23639       39.43006       26.82218
O         61.28863       38.88160       26.28392
O         62.67058       40.60660       26.36473
H         60.77919       40.23254       28.72495
H         63.08170       38.93446       30.10746
H         62.37799       37.82777       28.18521
H         63.95262       38.57863       27.76923
N         63.44627       42.07163       29.61957
C         64.42152       43.13959       29.79637
C         65.16072       43.53224       28.52879
O         66.08953       44.32050       28.63293
H         62.46066       42.30194       29.76991
H         65.15076       42.81639       30.57173
H         63.91324       44.05061       30.18107
N         64.81322       43.04640       27.30096
C         65.54534       43.36648       26.07187
C         65.52567       44.84787       25.69278
O         66.32098       45.23809       24.84961
C         65.06109       42.48651       24.89340
C         63.58819       42.57761       24.56673
O         62.76206       43.35692       25.29198
O         63.12265       41.82246       23.72866
H         64.02297       42.39688       27.24554
H         66.60722       43.09466       26.26108
H         65.24640       41.42780       25.18202
H         65.66418       42.70199       23.98692
N         64.65926       45.72384       26.27163
C         64.64622       47.16233       26.03111
C         63.34888       47.67540       25.42588
O         63.25543       48.87755       25.22248
H         63.98188       45.34687       26.93193
H         65.47382       47.46138       25.35203
H         64.80879       47.67429       27.00352
N         62.33442       46.84059       25.05648
C         61.16414       47.28248       24.29493
C         59.88701       46.57276       24.73663
O         59.94811       45.61520       25.49569
C         61.41739       47.02038       22.77950
C         62.18756       48.14879       22.09088
O         62.08566       45.80074       22.58034
H         62.46286       45.82870       25.17825
H         60.96944       48.36448       24.46438
H         60.44957       46.97230       22.23653
H         63.03833       45.91317       22.84926
H         62.33232       47.88486       21.02030
H         61.59372       49.08543       22.14085
H         63.18036       48.31057       22.55593
N         58.67545       47.01585       24.26633
C         57.39670       46.37060       24.55666
C         56.78797       45.90025       23.22547
O         56.46904       46.72398       22.37982
C         56.40552       47.33402       25.29349
C         57.02686       48.01822       26.54211
C         55.13539       46.55239       25.70064
C         56.14495       49.15467       27.08794
H         58.66017       47.84770       23.65633
H         57.57049       45.49816       25.22382
H         56.13508       48.14346       24.58055
H         57.99194       48.49057       26.26433
H         57.22492       47.27211       27.34346
H         55.39877       45.75463       26.42822
H         54.36924       47.20179       26.16504
H         54.65682       46.08138       24.82152
H         55.98030       49.91975       26.29757
H         55.15936       48.79554       27.44458
H         56.64708       49.64922       27.94546
N         56.61043       44.57341       22.98661
C         55.98517       43.97827       21.80771
C         54.48013       43.97368       21.96790
O         53.97467       44.36787       23.00514
C         56.47768       42.50368       21.62239
C         57.93843       42.45776       21.15886
O         56.27121       41.75891       22.80154
H         56.88004       43.94273       23.72372
H         56.24728       44.56330       20.89946
H         55.91600       41.97936       20.82261
H         57.13248       41.64846       23.27930
H         58.33089       41.41688       21.20342
H         58.01819       42.81548       20.11162
H         58.54242       43.11623       21.80255
N         53.69871       43.51350       20.95595
C         52.24669       43.37950       21.04600
C         51.84791       42.42151       22.15841
O         51.04863       42.81249       22.99742
C         51.65050       42.94158       19.68427
C         51.64070       44.12761       18.70769
O         52.37787       41.86157       19.15139
H         54.17129       43.23476       20.08292
H         51.79333       44.36502       21.29625
H         50.58963       42.64110       19.84155
H         51.83034       41.46690       18.42456
H         52.66115       44.52740       18.53287
H         51.19270       43.82726       17.73803
H         51.01006       44.94240       19.12964
N         52.35673       41.16113       22.24150
C         51.99652       40.23735       23.31627
C         52.34748       40.80056       24.69301
O         51.50342       40.72262       25.57537
C         52.61175       38.84546       23.06662
C         52.29506       37.88439       24.22079
C         52.65443       36.43032       23.89077
C         52.39359       35.50041       25.08934
N         53.37564       35.68965       26.16209
H         53.03098       40.85323       21.52372
H         50.89356       40.07583       23.29481
H         53.71354       38.90648       22.93699
H         52.16460       38.45534       22.12396
H         51.20701       37.91883       24.45309
H         52.85751       38.24028       25.10539
H         53.71188       36.33349       23.56383
H         51.99841       36.11149       23.05017
H         52.45512       34.44467       24.74590
H         51.36290       35.67017       25.47422
H         53.43805       36.68350       26.47116
H         53.09378       35.11421       26.98743
H         54.31640       35.36977       25.83501
N         53.53609       41.42578       24.93832
C         53.85945       42.05998       26.22340
C         52.73575       43.00382       26.64504
O         52.27344       42.88460       27.77191
C         55.25441       42.74677       26.17787
C         56.38351       41.68136       26.23310
C         57.79446       42.21025       26.09620
O         58.77791       41.85002       26.93294
O         58.11873       42.86678       25.13408
H         54.20158       41.51095       24.15833
H         53.91474       41.28667       27.02125
H         55.37492       43.41302       27.05292
H         55.31671       43.37670       25.26666
H         56.22613       40.96006       25.40827
H         56.31087       41.12388       27.19302
N         52.15657       43.86976       25.77031
C         50.96908       44.62555       26.11505
H         50.14911       43.92583       26.39482
H         51.17473       45.30802       26.96452
H         50.62407       45.21913       25.24153
H         52.51524       43.94345       24.81381
Ca        60.77313       42.56308       26.08933
O         60.04817       40.33860       23.55724
H         60.49302       40.27121       24.43570
H         60.75880       40.10825       22.90777
O         60.68391       42.93152       22.77423
H         61.37409       43.62645       22.71268
H         60.75755       42.45847       21.90818

Ca 1.0



