%chk=holoCaM-CaMKII.loop1.water2.frame154.chk
%nprocshared=20
%mem=10GB
%nosave
#b3lyp/svp scf=(tight,noincore,xqc) Test 
#IOP(5/87=12) Density=Current Pop=(MK,readradii) iop(6/33=2) iop(6/42=6)

holoCaM-CaMKII.loop1.water2.frame154 

   0  1 
C          1.26484      102.01151       54.21816
C          0.85776      103.37970       53.76608
O          1.27869      104.35868       54.36099
H          1.94151      102.07223       55.09664
H          0.35964      101.43412       54.50182
H          1.78962      101.48741       53.39215
N          0.03631      103.51951       52.69306
C         -0.42039      104.81400       52.20213
C         -1.32611      105.45683       53.25110
O         -2.33094      104.84992       53.59578
C         -1.15547      104.59567       50.85946
C         -1.50509      105.85371       50.12743
O         -2.05668      105.77682       49.04349
O         -1.18278      107.05959       50.62153
H         -0.26046      102.66178       52.20002
H          0.47269      105.44700       51.99630
H         -2.07770      103.99745       51.02598
H         -0.48503      104.01990       50.18354
N         -1.02341      106.66677       53.81613
C         -1.81332      107.27692       54.89206
C         -2.54963      108.53719       54.46584
O         -3.32927      109.04375       55.26165
C         -0.92059      107.58950       56.11543
C         -0.20718      106.36385       56.71561
C         -1.13696      105.18199       57.04723
C         -2.26368      105.54688       58.02700
N         -3.16368      104.41227       58.22354
H         -0.19145      107.16726       53.48147
H         -2.62254      106.58420       55.20172
H         -1.54391      108.05392       56.90849
H         -0.14868      108.34012       55.83372
H          0.33183      106.68579       57.63307
H          0.55568      106.01250       55.99595
H         -0.52721      104.35885       57.47833
H         -1.57955      104.79582       56.10816
H         -2.86540      106.39145       57.63043
H         -1.82410      105.85734       59.00018
H         -3.91789      104.68639       58.89357
H         -3.60695      104.15185       57.31159
H         -2.63974      103.59382       58.60810
N         -2.40317      109.06971       53.22446
C         -3.20935      110.17697       52.71376
C         -4.09789      109.71487       51.56638
O         -4.86324      110.52402       51.06110
C         -2.31044      111.38048       52.34187
C         -1.20977      111.10258       51.34618
O         -0.36611      111.95893       51.13915
O         -1.09057      109.90020       50.75311
H         -1.72619      108.63425       52.59155
H         -3.90857      110.54147       53.49849
H         -1.81814      111.70741       53.28446
H         -2.93310      112.22672       51.97855
N         -4.08941      108.41990       51.12920
C         -4.96237      107.91394       50.09014
C         -4.75501      108.63169       48.78465
O         -5.71551      109.14511       48.22990
H         -3.46142      107.72773       51.55697
H         -6.02092      107.99531       50.41736
H         -4.73659      106.83509       49.93284
N         -3.51606      108.68592       48.22764
C         -3.23635      109.27725       46.92547
C         -2.71591      108.21643       45.95716
O         -2.21430      108.56745       44.89847
C         -2.30159      110.49866       47.08298
C         -0.92087      110.23757       47.61847
O         -0.08869      111.27968       47.79979
O         -0.53940      109.11222       47.89065
H         -2.73313      108.25891       48.74228
H         -4.16372      109.68640       46.46818
H         -2.79990      111.22045       47.76730
H         -2.19157      110.99376       46.09425
N         -2.89916      106.88711       46.21936
C         -2.52590      105.81308       45.31573
C         -1.04724      105.49603       45.27983
O         -0.70404      104.54397       44.59030
H         -3.42177      106.60345       47.05877
H         -2.91560      106.02373       44.29645
H         -3.01902      104.88312       45.67471
N         -0.11182      106.20164       45.97982
C          1.30550      105.84662       45.98435
C          1.84111      105.66486       47.39696
O          1.20775      106.08056       48.36063
C          2.13926      106.90817       45.22198
C          1.88969      106.86325       43.70803
O          1.90459      108.19847       45.72944
H         -0.40317      107.02199       46.52690
H          1.45735      104.86857       45.47735
H          3.22040      106.68376       45.35078
H          1.03496      108.52306       45.37441
H          2.16057      105.86074       43.31304
H          0.82615      107.07048       43.46796
H          2.52707      107.61983       43.20208
N          3.03375      105.02732       47.57179
C          3.71722      104.85524       48.84841
C          5.07896      105.50628       48.71323
O          5.87564      105.04989       47.90073
C          3.86940      103.33890       49.20121
C          2.48324      102.68650       49.43122
C          4.77460      103.13951       50.43830
C          2.55065      101.16663       49.62513
H          3.50544      104.64982       46.73338
H          3.15148      105.35191       49.66988
H          4.36098      102.83376       48.33915
H          1.84097      102.87053       48.54448
H          1.99297      103.14548       50.31800
H          4.94549      102.06794       50.65600
H          5.78352      103.54982       50.25237
H          4.34097      103.63204       51.33384
H          3.02260      100.68827       48.74030
H          3.11681      100.88664       50.53596
H          1.52467      100.76087       49.74282
N          5.41895      106.58370       49.46998
C          6.74246      107.19524       49.39832
C          7.74167      106.34364       50.16299
O          7.34668      105.36954       50.78093
C          6.71704      108.64877       49.93389
C          5.74890      109.51115       49.11708
O          6.33778      108.65834       51.28179
H          4.71783      106.97501       50.11375
H          7.05701      107.25145       48.33201
H          7.73790      109.08010       49.83545
H          6.41516      109.59442       51.60363
H          5.77545      110.56147       49.47434
H          6.02599      109.49570       48.04179
H          4.71549      109.13365       49.23701
N          9.06555      106.64774       50.16468
C         10.04975      105.87496       50.92012
C          9.75880      105.99071       52.41301
O          9.68298      104.97826       53.09360
C         11.47990      106.36083       50.58595
C         12.54333      105.45529       51.21986
O         11.65221      106.33298       49.19112
H          9.38217      107.45361       49.60432
H          9.99342      104.80836       50.60218
H         11.59755      107.40512       50.96133
H         12.33995      107.01346       48.96878
H         12.43392      104.41544       50.83995
H         13.55669      105.81908       50.94825
H         12.45715      105.44569       52.32562
N          9.54268      107.21742       52.96703
C          9.22660      107.45041       54.37710
C          7.99754      106.66276       54.81004
O          8.07642      105.95429       55.80412
C          9.02561      108.96473       54.63919
C         10.34067      109.74442       54.43225
C         10.17821      111.24748       54.70192
C         11.48250      112.03724       54.46882
N         12.54913      111.65444       55.39790
H          9.57458      108.02910       52.33243
H         10.07852      107.11737       55.01140
H          8.70631      109.11138       55.69498
H          8.22564      109.36441       53.97595
H         10.70622      109.61973       53.39209
H         11.09530      109.32127       55.12638
H          9.82677      111.41455       55.74316
H          9.40932      111.64933       54.00601
H         11.26284      113.11884       54.60843
H         11.83005      111.89475       53.42120
H         12.84978      110.66727       55.23864
H         13.37830      112.27028       55.23480
H         12.22876      111.77732       56.38578
N          6.84157      106.70734       54.09162
C          5.63784      105.94872       54.44019
C          5.93865      104.46353       54.57514
O          5.52877      103.87383       55.56561
C          4.49141      106.21554       53.42801
C          4.03867      107.68548       53.53350
C          2.83104      108.04299       52.71631
O          2.83404      108.01668       51.36973
O          1.83944      108.46154       53.28941
H          6.83664      107.28293       53.24087
H          5.26570      106.28762       55.43376
H          3.62529      105.57237       53.69839
H          4.80501      105.95848       52.39276
H          4.85568      108.37286       53.25322
H          3.78617      107.88487       54.59823
N          6.71605      103.81550       53.66628
C          7.10832      102.42552       53.78916
H          8.21281      102.36662       53.89926
H          6.64739      101.92882       54.66865
H          6.81021      101.87486       52.87397
H          7.09536      104.34087       52.87405
Ca         0.94496      108.93412       50.51950
O          2.52058      109.68940       48.04777
H          2.46269      110.67372       47.97171
H          3.26551      109.44338       47.44468
O          2.99346      111.25174       50.74551
H          3.52559      110.68746       51.36022
H          2.20919      111.52651       51.28238

Ca 1.0



