%chk=holoCaM.loop1.water2.frame290.chk
%nprocshared=20
%mem=10GB
%nosave
#b3lyp/svp scf=(tight,noincore,xqc) Test 
#IOP(5/87=12) Density=Current Pop=(MK,readradii) iop(6/33=2) iop(6/42=6)

holoCaM.loop1.water2.frame290 

   0  1 
C         20.54359       59.30836       47.52238
C         21.43785       58.38002       46.75845
O         22.56155       58.75168       46.47129
H         19.55591       58.84303       47.72412
H         21.01946       59.57351       48.48839
H         20.38044       60.23160       46.92687
N         20.98788       57.16246       46.35908
C         21.76379       56.23547       45.55259
C         21.14429       56.24271       44.16913
O         20.28206       55.43556       43.85501
C         21.82666       54.87761       46.26697
C         22.47061       53.81520       45.43520
O         23.58787       53.96644       44.96955
O         21.79976       52.67593       45.20875
H         20.01657       56.89605       46.58350
H         22.81985       56.56985       45.43485
H         20.80533       54.53712       46.54028
H         22.41381       55.00434       47.20395
N         21.49177       57.26393       43.33712
C         20.87385       57.56736       42.05114
C         21.04890       56.48316       40.98784
O         20.39764       56.60241       39.95895
C         21.45261       58.90279       41.49616
C         21.29854       60.13147       42.42534
C         19.83847       60.54478       42.63230
C         19.73998       61.74771       43.58035
N         18.35379       62.19328       43.71082
H         22.20055       57.91351       43.69465
H         19.78369       57.67839       42.22755
H         20.98310       59.14625       40.51854
H         22.54202       58.75361       41.31955
H         21.83799       60.98454       41.95833
H         21.77740       59.96062       43.41035
H         19.25714       59.70923       43.07386
H         19.40253       60.80900       41.64458
H         20.35703       62.58911       43.19404
H         20.13175       61.45838       44.58193
H         17.99918       62.52082       42.78274
H         17.75304       61.41283       44.06266
H         18.31100       62.98827       44.38837
N         21.91007       55.43103       41.12768
C         22.07408       54.38663       40.10586
C         21.77634       52.98157       40.62898
O         21.81777       52.05087       39.83588
C         23.46596       54.47527       39.44179
C         24.64206       54.32711       40.36600
O         24.47532       54.14086       41.68686
O         25.77046       54.42726       39.91349
H         22.48867       55.38772       41.97543
H         21.34655       54.54955       39.28044
H         23.54810       55.47223       38.95532
H         23.53900       53.70602       38.64158
N         21.40693       52.74948       41.92013
C         20.96574       51.45201       42.40375
C         22.04974       50.40040       42.43713
O         21.85443       49.34879       41.84441
H         21.35116       53.53035       42.58395
H         20.10589       51.10696       41.78903
H         20.58681       51.56348       43.43810
N         23.19495       50.59042       43.15670
C         24.20528       49.54545       43.34366
C         24.44227       49.19496       44.81946
O         25.15055       48.22904       45.06651
C         25.51590       49.91080       42.61435
C         26.20004       51.15743       43.10028
O         25.68863       51.88654       44.10511
O         27.23750       51.51811       42.56867
H         23.34056       51.51070       43.59056
H         23.84829       48.60421       42.87190
H         25.28667       50.04512       41.53518
H         26.23014       49.06433       42.71058
N         23.89026       49.90958       45.84720
C         24.01517       49.54764       47.25393
C         24.79165       50.56301       48.07083
O         24.77038       50.44969       49.28929
H         23.32968       50.74476       45.64956
H         24.50555       48.56011       47.39466
H         22.98568       49.46391       47.66416
N         25.57102       51.51882       47.48659
C         26.42158       52.44180       48.23534
C         26.26894       53.88138       47.75604
O         25.58313       54.14631       46.77971
C         27.90777       51.99428       48.12689
C         28.19841       50.72944       48.94340
O         28.29711       51.81913       46.78808
H         25.64250       51.53507       46.46376
H         26.14100       52.44239       49.31227
H         28.56532       52.77274       48.56675
H         27.92213       50.95848       46.46197
H         29.27473       50.46966       48.85011
H         27.97762       50.91774       50.01583
H         27.59012       49.87134       48.59146
N         26.90600       54.87094       48.44128
C         26.89976       56.29068       48.10657
C         28.34293       56.72561       47.86365
O         29.19949       56.46781       48.69932
C         26.20968       57.08526       49.26343
C         24.68328       56.78250       49.24010
C         26.46043       58.60294       49.15643
C         23.88349       57.44353       50.36519
H         27.44011       54.60361       49.28325
H         26.31926       56.49442       47.17947
H         26.64839       56.75651       50.23165
H         24.52395       55.68657       49.32143
H         24.25356       57.11919       48.26924
H         27.54590       58.82310       49.18868
H         26.02610       59.01260       48.22683
H         26.02754       59.14429       50.02057
H         24.26382       57.11315       51.35373
H         23.92114       58.54993       50.30094
H         22.81561       57.15099       50.27516
N         28.66095       57.45030       46.75197
C         29.99008       57.98284       46.46161
C         30.05820       59.43043       46.90285
O         29.07665       59.93341       47.41385
C         30.30775       57.88506       44.94016
C         30.24145       56.45406       44.40521
O         29.47797       58.73906       44.18537
H         27.89373       57.74782       46.14375
H         30.76013       57.41911       47.03260
H         31.35112       58.22500       44.77518
H         28.59835       58.30035       44.05650
H         30.93447       55.79508       44.96821
H         29.20640       56.07376       44.49392
H         30.52582       56.44229       43.33130
N         31.18868       60.16811       46.74605
C         31.27142       61.58673       47.09665
C         30.30911       62.42738       46.25641
O         29.59404       63.23082       46.83823
C         32.72198       62.10491       46.99155
C         33.60895       61.42889       48.05472
O         33.22816       61.87651       45.70192
H         32.02108       59.70116       46.35693
H         30.98262       61.72076       48.16565
H         32.71276       63.19897       47.20345
H         34.13061       62.28843       45.66999
H         33.65823       60.33006       47.90792
H         34.63949       61.83787       48.01251
H         33.20550       61.62995       49.07179
N         30.18210       62.25143       44.90426
C         29.18389       62.96393       44.09127
C         27.79631       62.84760       44.69926
O         27.17137       63.86402       44.96979
C         29.10976       62.38720       42.64386
C         29.84784       63.20514       41.57981
C         31.36499       63.29267       41.72808
C         31.91609       64.17877       40.59540
N         33.37023       64.28888       40.65408
H         30.76621       61.52987       44.45503
H         29.41747       64.05107       44.05486
H         28.05492       62.44581       42.28851
H         29.36870       61.30501       42.61957
H         29.42084       64.23268       41.58857
H         29.61893       62.75026       40.58931
H         31.80416       62.27365       41.66497
H         31.62653       63.74251       42.70968
H         31.47024       65.19677       40.67434
H         31.62499       63.75209       39.60865
H         33.69140       64.91453       39.87950
H         33.66309       64.70234       41.56840
H         33.80360       63.34574       40.52935
N         27.24903       61.62749       44.90987
C         25.89903       61.41343       45.42060
C         25.70389       62.06975       46.78429
O         24.67613       62.69845       46.99527
C         25.61036       59.89834       45.45977
C         25.56041       59.30393       44.03220
C         25.38314       57.81079       44.01151
O         26.28657       57.00646       44.59234
O         24.45950       57.30978       43.39758
H         27.83538       60.80943       44.68798
H         25.15261       61.86516       44.72858
H         24.63858       59.72747       45.94969
H         26.39654       59.40358       46.05874
H         26.50170       59.51692       43.49032
H         24.72821       59.78546       43.47137
N         26.67130       62.01778       47.73564
C         26.54967       62.64820       49.03115
H         26.38065       63.73935       48.91202
H         25.71131       62.19333       49.59766
H         27.48932       62.50146       49.60842
H         27.54608       61.54648       47.52024
Ca        26.20817       54.45097       43.07910
O         28.51734       53.79188       44.91599
H         29.21772       53.48397       44.28862
H         27.75775       53.18277       44.75444
O         28.23868       55.97982       41.59181
H         27.77246       55.93053       40.72029
H         28.59579       55.06688       41.73361

Ca 1.0



