%chk=holoCaM.loop4.water3.frame223.chk
%nprocshared=20
%mem=10GB
%nosave
#b3lyp/svp scf=(tight,noincore,xqc) Test 
#IOP(5/87=12) Density=Current Pop=(MK,readradii) iop(6/33=2) iop(6/42=6)

holoCaM.loop4.water3.frame223 

   -3  1 
C         43.34752       46.59277       12.41431
C         42.48081       45.55333       13.06047
O         41.27115       45.72293       13.03740
H         44.42005       46.31427       12.45320
H         43.05102       46.68741       11.34593
H         43.20191       47.57413       12.91121
N         43.01634       44.42908       13.62647
C         42.17730       43.30308       14.02254
C         42.85786       42.39717       15.04942
O         43.95760       41.93747       14.77248
C         41.89460       42.46939       12.75395
C         40.86936       41.40319       12.98652
O         40.60594       40.60914       12.09870
O         40.19178       41.35557       14.14714
H         44.03764       44.29444       13.57699
H         41.21745       43.68392       14.43406
H         42.84405       42.00729       12.40425
H         41.51706       43.11709       11.93519
N         42.23369       42.03805       16.21965
C         42.81803       41.07637       17.16562
C         41.97789       39.79866       17.37614
O         42.51388       38.88750       17.99241
C         43.13865       41.74375       18.54053
C         41.86151       42.26925       19.25001
C         44.19274       42.85342       18.36852
C         42.10702       42.71027       20.69607
H         41.31211       42.44479       16.43295
H         43.78394       40.70761       16.75657
H         43.59468       40.95894       19.18544
H         41.10736       41.45554       19.29440
H         41.42426       43.11742       18.68173
H         43.79716       43.68751       17.75140
H         44.51577       43.25741       19.34937
H         45.10079       42.44325       17.87750
H         42.80819       43.56628       20.75447
H         41.14650       43.03056       21.15245
H         42.51130       41.86274       21.29040
N         40.67579       39.65564       16.96990
C         39.86282       38.45962       17.27299
C         39.13740       37.85116       16.05708
O         38.43974       36.86482       16.24978
C         38.86633       38.77220       18.41828
C         38.08332       40.01110       18.14150
O         37.41981       40.14222       16.98518
O         38.20434       40.97828       18.87731
H         40.20797       40.45406       16.52204
H         40.50490       37.64142       17.66575
H         39.44759       38.93842       19.35325
H         38.18871       37.91066       18.59697
N         39.28562       38.31895       14.78399
C         38.71331       37.65699       13.61097
C         37.19844       37.74211       13.42841
O         36.71540       37.12605       12.48858
H         39.92842       39.09588       14.61674
H         39.01550       36.58758       13.63657
H         39.16325       38.10272       12.69734
N         36.38245       38.47375       14.24131
C         34.92007       38.54042       14.08829
C         34.41530       39.27247       12.82761
O         33.20633       39.38607       12.67763
C         34.27006       39.14936       15.35603
C         34.60159       40.58873       15.64184
O         35.35887       41.22392       14.92740
O         34.04883       41.18332       16.71516
H         36.81160       38.95762       15.03451
H         34.53535       37.49689       14.04483
H         34.57387       38.54292       16.23673
H         33.16496       39.06888       15.26276
N         35.25158       39.75294       11.86469
C         34.79370       40.35495       10.61923
C         34.42340       41.82725       10.68863
O         34.13633       42.36689        9.62744
H         36.25451       39.57209       11.93806
H         33.96894       39.75114       10.18201
H         35.64053       40.30764        9.89976
N         34.43695       42.56377       11.83974
C         34.20978       44.01338       11.85626
C         35.41189       44.74304       12.43632
O         36.32225       44.09462       12.93715
C         32.94377       44.37037       12.66398
C         31.66988       43.78686       12.03755
C         30.44027       44.28773       12.75516
N         29.58233       43.42958       13.35319
O         30.20960       45.48806       12.78527
H         34.64541       42.09683       12.73203
H         34.07681       44.39956       10.82172
H         32.83602       45.47639       12.67926
H         33.04471       44.01876       13.71517
H         31.71850       42.67704       12.06633
H         31.59738       44.10698       10.97558
H         29.75074       42.41378       13.33772
H         28.74172       43.78500       13.83327
N         35.47034       46.10808       12.41405
C         36.55521       46.88848       13.00171
C         35.98092       47.67562       14.16264
O         35.08761       48.49041       13.96617
C         37.22851       47.81488       11.95308
C         38.34917       48.65611       12.59472
C         37.81994       47.00154       10.79139
H         34.68971       46.62989       11.98373
H         37.34274       46.21090       13.39383
H         36.46386       48.50736       11.53672
H         37.94726       49.30546       13.40015
H         39.13558       48.00078       13.02908
H         38.81753       49.31890       11.83638
H         38.26998       47.68238       10.03763
H         38.61465       46.31832       11.15366
H         37.03387       46.40310       10.28592
N         36.43137       47.43287       15.42033
C         35.83242       47.99782       16.62438
C         36.47455       49.34983       16.94150
O         37.40793       49.74138       16.25777
C         36.06549       46.95118       17.75129
C         35.24500       47.00800       19.01634
N         35.47777       46.09458       19.98765
O         34.34807       47.82054       19.16339
H         37.15571       46.70757       15.53314
H         34.73628       48.09680       16.46147
H         37.14719       46.94767       18.00710
H         35.81630       45.95816       17.32415
H         36.21690       45.38437       19.87397
H         34.92248       46.09392       20.85532
N         36.04275       50.10905       17.98431
C         36.72477       51.30749       18.46836
C         38.12442       50.93774       18.93726
O         39.08945       51.53181       18.47672
C         35.91361       51.90134       19.64571
C         36.60301       53.04841       20.34453
C         36.87482       54.25320       19.67641
C         36.97647       52.91133       21.69296
C         37.50836       55.30373       20.35135
C         37.61054       53.95821       22.36241
C         37.87771       55.16026       21.69440
O         38.48583       56.18026       22.33264
H         35.20759       49.80488       18.49050
H         36.78726       52.07049       17.66025
H         35.72968       51.09144       20.38535
H         34.91890       52.23647       19.27967
H         36.59304       54.38140       18.63898
H         36.77989       51.99078       22.22903
H         37.71121       56.23119       19.83110
H         37.89161       53.83235       23.40052
H         38.75267       56.11784       23.26131
N         38.29252       49.94860       19.86114
C         39.58524       49.53546       20.41054
C         40.56702       48.95583       19.38488
O         41.66954       48.61308       19.78970
C         39.36678       48.53576       21.57649
C         38.74222       47.19426       21.15065
C         38.50906       46.31567       22.34669
O         39.54593       45.92189       23.11047
O         37.37903       45.95122       22.63107
H         37.43877       49.50128       20.22394
H         40.06271       50.43662       20.85511
H         38.70412       49.02167       22.32743
H         40.34216       48.33550       22.07247
H         39.41438       46.66392       20.44544
H         37.77387       47.36795       20.64220
N         40.26758       48.83351       18.05800
C         41.18577       48.29101       17.06312
C         41.62168       49.38173       16.10778
O         42.81450       49.63644       16.01564
C         40.49619       47.16143       16.28489
C         40.13665       45.98941       17.19599
C         39.38281       44.91784       16.47411
O         39.06254       43.80997       17.14586
O         39.07150       45.02134       15.29904
H         39.35093       49.13232       17.71449
H         42.10224       47.87928       17.54378
H         41.17558       46.79216       15.48677
H         39.56945       47.55125       15.80908
H         39.49899       46.33307       18.03568
H         41.07124       45.55471       17.61245
N         40.71095       50.06442       15.35898
C         41.06433       51.10794       14.42013
H         42.15969       51.27956       14.36866
H         40.70536       50.82468       13.40863
H         40.57238       52.05498       14.72487
H         39.71322       49.83995       15.44951
Ca        37.86293       42.17511       16.22820
O         37.69553       41.39460       12.63953
H         38.06623       40.52922       12.94376
H         37.81422       41.38079       11.65592
O         39.06033       43.77483       12.38987
H         38.98637       44.68314       12.76716
H         38.56356       43.81553       11.53546
O         35.76143       43.54327       17.91628
H         36.16811       42.72865       18.30242
H         35.56068       43.31066       16.97521

Ca 1.0



