%chk=holoCaM-CaMKII.loop2.water2.frame485.chk
%nprocshared=20
%mem=10GB
%nosave
#b3lyp/svp scf=(tight,noincore,xqc) Test 
#IOP(5/87=12) Density=Current Pop=(MK,readradii) iop(6/33=2) iop(6/42=6)

holoCaM-CaMKII.loop2.water2.frame485 

   -2  1 
C         65.32592       89.30536       95.21118
C         64.96040       90.62673       95.82349
O         65.72586       91.16500       96.61011
H         66.31238       88.95203       95.57750
H         64.55264       88.54810       95.45794
H         65.37809       89.41602       94.10605
N         63.79260       91.22346       95.46815
C         63.38432       92.54359       95.93202
C         63.10793       92.55329       97.43230
O         62.30248       91.74830       97.88005
C         62.10664       92.97148       95.17487
C         61.78670       94.42407       95.35767
O         62.63229       95.23047       96.02259
O         60.78477       94.89422       94.84454
H         63.19485       90.73139       94.78456
H         64.19335       93.26095       95.66818
H         61.24926       92.34521       95.50520
H         62.24435       92.81747       94.08406
N         63.70267       93.46702       98.25892
C         63.44398       93.53272       99.69865
C         62.77942       94.84365      100.14730
O         62.47990       94.94825      101.32892
C         64.77056       93.33075      100.44158
H         64.36645       94.14375       97.85258
H         62.75757       92.71329      100.00327
H         65.48528       94.14386      100.18725
H         64.61288       93.32493      101.54120
H         65.22505       92.35895      100.15141
N         62.54391       95.88911       99.29540
C         62.02233       97.19452       99.73437
C         61.03141       97.84930       98.75807
O         60.56855       98.93988       99.06381
C         63.21360       98.14135      100.00725
C         64.07792       98.38669       98.80333
O         65.15035       98.95438       98.93175
O         63.73334       97.88301       97.60744
H         62.88761       95.80036       98.33782
H         61.49074       97.07683      100.70436
H         63.84697       97.65271      100.78088
H         62.86715       99.11356      100.41698
N         60.65001       97.26768       97.58305
C         59.69032       97.86172       96.65832
C         60.13844       99.12541       95.92783
O         59.31933       99.65293       95.18840
H         60.98400       96.32706       97.35688
H         58.75580       98.08244       97.21884
H         59.43976       97.11399       95.87545
N         61.37547       99.69002       96.06878
C         61.73105      100.96491       95.43673
C         61.75688      100.94971       93.90351
O         61.81415      102.02799       93.32853
C         63.06871      101.52456       95.98086
C         64.29597      100.69800       95.68053
N         65.51669      101.18287       95.99669
O         64.20371       99.60213       95.15158
H         62.04868       99.25380       96.70307
H         60.94518      101.69173       95.73951
H         63.00066      101.65056       97.08291
H         63.22294      102.53066       95.53434
H         65.62101      102.10750       96.43833
H         66.36185      100.64313       95.77844
N         61.75434       99.79689       93.17531
C         61.72382       99.76086       91.71685
C         63.01245       99.26653       91.08065
O         63.01044       99.08662       89.87089
H         61.76456       98.89926       93.66677
H         61.52219      100.76516       91.28501
H         60.88244       99.10158       91.41409
N         64.16650       99.10373       91.79283
C         65.44795       98.74014       91.18592
C         66.09730       97.54866       91.87377
O         65.64181       97.10759       92.91801
C         66.42017       99.95343       91.27209
C         65.97523      101.10142       90.36823
O         66.51179      100.42823       92.59261
H         64.16297       99.32104       92.79408
H         65.31424       98.46072       90.11788
H         67.43524       99.67656       90.90719
H         67.07229       99.78493       93.09770
H         64.97162      101.47466       90.65767
H         66.70310      101.93801       90.44575
H         65.95084      100.76104       89.31068
N         67.24868       97.03899       91.35171
C         68.11337       96.09930       92.04808
C         69.15736       96.92920       92.76386
O         69.81648       97.74297       92.12951
C         68.77126       95.09262       91.05194
C         67.69320       94.16893       90.42956
C         69.86324       94.25640       91.75998
C         68.23218       93.24536       89.33163
H         67.62507       97.47356       90.49505
H         67.54773       95.51320       92.80553
H         69.26471       95.67420       90.24124
H         66.89740       94.79204       89.96952
H         67.22930       93.54597       91.22534
H         69.42843       93.65952       92.58921
H         70.38311       93.57841       91.05604
H         70.65760       94.91216       92.17113
H         68.99129       92.53668       89.71913
H         67.39985       92.63784       88.91855
H         68.67569       93.84554       88.50934
N         69.38602       96.73553       94.09104
C         70.39927       97.45741       94.84651
C         71.57629       96.54508       95.09120
O         71.53904       95.39739       94.67240
C         69.81115       97.95321       96.18166
C         68.67338       98.90514       95.97755
O         67.65994       98.54036       95.40450
O         68.76117      100.16411       96.44714
H         68.87334       95.98565       94.57675
H         70.78206       98.32612       94.26594
H         70.59798       98.47578       96.76500
H         69.45286       97.08799       96.78234
N         72.69295       97.00041       95.71948
C         73.86119       96.15735       95.91652
C         73.54557       94.96656       96.82224
O         73.86981       93.85964       96.41663
C         75.07461       96.97089       96.41833
C         76.34760       96.16224       96.35114
C         76.84624       95.73045       95.10708
C         77.05473       95.84171       97.52096
C         78.02822       94.99042       95.03770
C         78.23675       95.09795       97.44653
C         78.72318       94.67357       96.20656
H         72.72944       97.98709       96.01962
H         74.15220       95.77430       94.91279
H         74.91126       97.34035       97.44525
H         75.21496       97.86402       95.77118
H         76.32606       95.97212       94.18839
H         76.69048       96.16280       98.48875
H         78.40553       94.66540       94.07647
H         78.77689       94.85153       98.35079
H         79.63942       94.10092       96.15040
N         72.89013       95.07501       98.03046
C         72.62049       93.94067       98.91790
C         71.68796       92.86951       98.35883
O         71.41759       91.90842       99.06619
C         71.97219       94.58451      100.15313
C         72.57204       95.97559      100.14052
C         72.46963       96.30986       98.66038
H         73.60304       93.49697       99.19327
H         70.87944       94.71926       99.97234
H         72.10117       94.00892      101.09488
H         72.06711       96.70197      100.81185
H         73.64912       95.90570      100.41698
H         71.40403       96.49368       98.39511
H         73.05891       97.20588       98.41563
N         71.15490       92.96831       97.10944
C         70.23783       92.00910       96.51615
C         70.97174       91.27839       95.41532
O         71.07448       90.06155       95.47432
C         69.01510       92.75658       95.95016
C         68.32283       93.60110       97.02363
C         67.27582       94.49989       96.45386
O         66.76821       95.44256       97.24943
O         66.94477       94.45463       95.28051
H         71.39099       93.77448       96.52627
H         69.88867       91.26804       97.27027
H         68.29207       92.04419       95.49641
H         69.36211       93.45318       95.15543
H         69.07051       94.27890       97.48764
H         67.88450       92.96265       97.82060
N         71.55175       91.96909       94.39438
C         72.33089       91.32715       93.36382
H         73.19384       90.80028       93.82386
H         71.70090       90.60794       92.80234
H         72.72170       92.09402       92.66051
H         71.46540       92.99123       94.35366
Ca        65.38873       96.99452       96.47676
O         63.10355       96.62387       93.55955
H         62.54895       96.75568       92.75126
H         62.56983       96.99759       94.30263
O         64.77136       94.24305       93.17093
H         65.68923       93.87879       93.12560
H         64.19752       93.48703       92.89405

Ca 1.0



