%chk=holoCaM.loop2.water1.frame245.chk
%nprocshared=20
%mem=10GB
%nosave
#b3lyp/svp scf=(tight,noincore,xqc) Test 
#IOP(5/87=12) Density=Current Pop=(MK,readradii) iop(6/33=2) iop(6/42=6)

holoCaM.loop2.water1.frame245 

   -2  1 
C         55.49460       92.52652       42.57922
C         55.09601       93.72499       41.77089
O         53.95117       94.14680       41.84651
H         56.31863       92.80235       43.27043
H         54.63846       92.14448       43.17457
H         55.84537       91.72193       41.89890
N         56.01536       94.32912       40.96790
C         55.72932       95.50160       40.14453
C         54.65340       95.15261       39.12284
O         54.93966       94.43133       38.17696
C         57.05602       95.94841       39.47285
C         57.08212       97.08084       38.47436
O         57.99936       97.09339       37.67031
O         56.25104       98.14268       38.50782
H         56.96989       93.93561       40.96393
H         55.37092       96.29217       40.82870
H         57.43601       95.06031       38.92016
H         57.81473       96.17074       40.25412
N         53.36024       95.54995       39.31452
C         52.27540       95.15824       38.42217
C         52.34372       95.95361       37.13734
O         52.52768       95.36476       36.08124
C         50.90736       95.34442       39.09856
H         53.13093       96.06878       40.17192
H         52.36214       94.06796       38.21117
H         50.71681       96.40082       39.37399
H         50.09594       95.00576       38.41867
H         50.86005       94.73272       40.02505
N         52.18577       97.31047       37.15629
C         52.21621       98.13546       35.95056
C         53.60146       98.21448       35.29988
O         53.70239       98.81605       34.23940
C         51.62540       99.53870       36.23030
C         52.36714      100.36658       37.24518
O         53.46986       99.89970       37.85717
O         51.95123      101.47821       37.52937
H         51.98269       97.76266       38.05996
H         51.52425       97.67332       35.21046
H         50.58217       99.40656       36.59500
H         51.57645      100.10745       35.27636
N         54.69812       97.59460       35.83114
C         55.97513       97.50986       35.13886
C         56.79010       98.78995       35.07810
O         57.83967       98.74437       34.45139
H         54.61427       97.06195       36.70566
H         55.79119       97.13666       34.10771
H         56.60248       96.74593       35.63984
N         56.40887       99.96098       35.67163
C         57.18122      101.19586       35.49610
C         58.58219      101.16462       36.11539
O         59.36624      102.05110       35.80597
C         56.40114      102.43026       35.99167
C         56.27434      102.51199       37.49418
N         56.77165      103.57921       38.16075
O         55.71113      101.62325       38.11354
H         55.51709       99.99325       36.18242
H         57.29925      101.32475       34.39655
H         55.38695      102.42768       35.53735
H         56.92425      103.33980       35.62444
H         57.25052      104.34327       37.66305
H         56.66927      103.65163       39.18002
N         58.95999      100.20272       37.00560
C         60.29895      100.09051       37.56926
C         60.33389      100.24943       39.07880
O         61.38151       99.98410       39.65113
H         58.27403       99.49911       37.29848
H         61.00504      100.83010       37.13142
H         60.68030       99.07918       37.31112
N         59.27004      100.73330       39.78765
C         59.29211      100.94987       41.23805
C         58.08275      100.27967       41.90116
O         57.31172       99.62581       41.21349
C         59.35062      102.47249       41.52946
C         60.62490      103.10872       40.95463
O         58.22367      103.10859       40.99578
H         58.42432      101.02878       39.27829
H         60.20453      100.50522       41.69373
H         59.37881      102.62399       42.63085
H         58.15672      103.99696       41.43407
H         60.65955      104.18743       41.21725
H         61.52614      102.61928       41.38233
H         60.65472      103.01984       39.84831
N         57.85711      100.40997       43.24529
C         56.73434       99.80180       43.96387
C         55.79055      100.87738       44.50214
O         56.18915      101.69274       45.32204
C         57.28739       98.86778       45.09463
C         57.72949       97.52340       44.45680
C         56.26942       98.62648       46.23007
C         58.37091       96.53553       45.43369
H         58.51354      100.97454       43.80316
H         56.12185       99.17587       43.27910
H         58.15733       99.37000       45.57507
H         58.46354       97.72450       43.64778
H         56.84148       97.02784       44.00210
H         56.70843       98.01355       47.04033
H         56.00228       99.58138       46.72703
H         55.35173       98.14178       45.84911
H         59.27902       96.97995       45.89032
H         57.66488       96.22695       46.23114
H         58.65626       95.61371       44.88470
N         54.48791      100.89010       44.08350
C         53.44521      101.77277       44.60883
C         52.97936      101.31525       45.99405
O         53.46620      100.31183       46.49476
C         52.22249      101.74079       43.65835
C         52.56012      102.22525       42.27972
O         52.98265      103.49094       42.09835
O         52.42669      101.48697       41.31655
H         54.21523      100.22455       43.34636
H         53.82705      102.81685       44.65143
H         51.42154      102.40807       44.02974
H         51.82401      100.70147       43.60775
N         52.00268      102.00315       46.65933
C         51.43044      101.58220       47.93883
C         50.67468      100.25024       47.84172
O         50.98898       99.38097       48.63969
C         50.51105      102.67354       48.52621
C         50.00548      102.29072       49.90225
C         50.90702      102.09549       50.96650
C         48.62977      102.11934       50.13387
C         50.43984      101.73251       52.23283
C         48.16724      101.75666       51.40356
C         49.07116      101.56301       52.45149
H         51.65306      102.87739       46.23807
H         52.27158      101.46529       48.65785
H         49.66406      102.85962       47.83742
H         51.07739      103.62540       48.61480
H         51.97182      102.22312       50.81983
H         47.91535      102.26058       49.33279
H         51.13998      101.58245       53.04492
H         47.10707      101.62410       51.57545
H         48.71163      101.28188       53.43305
N         49.67959       99.98135       46.92755
C         48.99235       98.69294       46.84025
C         49.88817       97.55360       46.37031
O         49.38904       96.43968       46.27897
C         47.84715       98.95646       45.85417
C         48.45614       99.99321       44.93848
C         49.16399      100.90305       45.93668
H         48.55862       98.39951       47.82145
H         47.42429       98.05684       45.35530
H         47.02297       99.46682       46.40189
H         49.22744       99.48622       44.31576
H         47.74425      100.51507       44.26470
H         49.93633      101.46468       45.39414
H         48.44233      101.58922       46.42966
N         51.21058       97.73299       46.09123
C         52.10949       96.65443       45.70748
C         53.14372       96.38622       46.79584
O         53.80473       95.36025       46.72347
C         52.80282       97.03768       44.39497
C         51.78563       97.31484       43.27458
C         52.44639       97.86531       42.05363
O         53.77122       98.07115       42.03802
O         51.78254       98.12870       41.06480
H         51.61692       98.67197       46.14456
H         51.53844       95.70963       45.57022
H         53.50829       96.23763       44.07609
H         53.38708       97.96621       44.58211
H         51.04398       98.07073       43.60007
H         51.25747       96.37134       43.01893
N         53.33775       97.25241       47.83452
C         54.24379       97.01820       48.93637
H         55.02518       97.80607       48.94525
H         53.67012       97.08328       49.88597
H         54.72684       96.02226       48.88401
H         52.83661       98.14164       47.86507
Ca        54.78358       98.54490       40.12521
O         55.48860      102.02755       41.17034
H         55.91847      102.30076       42.01852
H         55.14593      102.87390       40.79006

Ca 1.0



