%chk=holoCaM.loop4.water3.frame83.chk
%nprocshared=20
%mem=10GB
%nosave
#b3lyp/svp scf=(tight,noincore,xqc) Test 
#IOP(5/87=12) Density=Current Pop=(MK,readradii) iop(6/33=2) iop(6/42=6)

holoCaM.loop4.water3.frame83 

   -3  1 
C          0.36258       15.83236      132.97096
C         -0.52750       15.54660      131.79835
O         -0.05040       14.94976      130.84819
H          1.22437       16.45338      132.65240
H         -0.18612       16.35291      133.78239
H          0.74460       14.86808      133.37370
N         -1.84794       15.89022      131.81779
C         -2.79499       15.48637      130.78472
C         -3.62399       16.65807      130.27166
O         -4.29812       17.29371      131.07100
C         -3.72337       14.43162      131.40994
C         -4.70709       13.89472      130.42172
O         -4.31676       13.33843      129.40713
O         -6.02632       14.01781      130.66042
H         -2.22136       16.36481      132.65410
H         -2.26656       15.00522      129.93234
H         -4.26809       14.87220      132.27331
H         -3.11779       13.58520      131.79423
N         -3.67593       16.95162      128.93568
C         -4.56787       17.96768      128.36471
C         -5.57266       17.38223      127.35886
O         -6.40061       18.14101      126.87533
C         -3.75291       19.11837      127.69809
C         -2.94795       18.63586      126.45851
C         -2.85013       19.79559      128.74353
C         -2.28103       19.77656      125.68584
H         -3.07560       16.41406      128.29578
H         -5.18068       18.42315      129.17330
H         -4.48689       19.88022      127.35029
H         -3.63992       18.13847      125.74540
H         -2.17109       17.90069      126.75566
H         -2.35560       20.69477      128.32545
H         -3.45889       20.13339      129.60890
H         -2.06994       19.09308      129.10597
H         -1.77955       19.36758      124.78334
H         -3.04236       20.51720      125.35934
H         -1.50921       20.28552      126.29664
N         -5.53513       16.07374      126.96153
C         -6.40099       15.51136      125.91355
C         -7.21936       14.29050      126.35979
O         -8.07238       13.85758      125.59632
C         -5.56264       15.16187      124.65936
C         -4.48233       14.13624      124.89394
O         -4.21314       13.69739      126.13566
O         -3.84815       13.69797      123.94894
H         -4.82368       15.47401      127.38224
H         -7.14282       16.27650      125.59783
H         -5.08885       16.08162      124.25505
H         -6.25395       14.76682      123.88246
N         -7.03355       13.68958      127.56576
C         -7.85611       12.60404      128.07871
C         -7.83527       11.31752      127.27182
O         -8.90517       10.89435      126.85687
H         -6.31324       14.05524      128.19097
H         -8.90408       12.96900      128.16022
H         -7.51680       12.35138      129.10630
N         -6.68706       10.59559      127.08196
C         -6.68911        9.24647      126.48572
C         -6.21133        8.16452      127.45922
O         -6.39228        6.99526      127.14949
C         -5.91387        9.19456      125.14925
C         -4.44835        9.50947      125.24092
O         -3.87823        9.79397      126.42061
O         -3.78739        9.58566      124.21936
H         -5.80395       11.00504      127.41797
H         -7.73512        8.96644      126.23674
H         -6.37639        9.93624      124.46202
H         -6.02288        8.18741      124.69253
N         -5.59913        8.46457      128.64171
C         -5.21501        7.47732      129.64349
C         -3.71346        7.35167      129.80958
O         -3.28257        6.77437      130.79736
H         -5.39090        9.44204      128.86592
H         -5.61579        6.46627      129.42042
H         -5.65996        7.80629      130.60710
N         -2.85947        7.79242      128.84625
C         -1.40921        7.67683      128.90289
C         -0.76934        9.05149      128.76450
O         -1.46038       10.02495      128.50259
C         -0.88152        6.67010      127.83143
C         -1.54346        6.73668      126.43245
C         -2.91182        6.07192      126.36998
N         -3.60519        6.04582      125.20945
O         -3.38786        5.52524      127.35476
H         -3.25442        8.20662      127.99854
H         -1.08173        7.29862      129.89573
H         -1.00347        5.62927      128.20129
H          0.21298        6.81978      127.71847
H         -0.90634        6.16824      125.72072
H         -1.58960        7.79126      126.08547
H         -3.22769        6.48358      124.35770
H         -4.52485        5.58015      125.16405
N          0.57394        9.18969      128.94931
C          1.30368       10.45118      128.86868
C          2.15670       10.37795      127.62303
O          2.90107        9.41622      127.47915
C          2.16906       10.65442      130.14960
C          2.99706       11.95031      130.07884
C          1.30449       10.69485      131.41908
H          1.12888        8.34130      129.14342
H          0.60776       11.31350      128.77729
H          2.87097        9.79638      130.24460
H          3.61526       12.06086      130.99619
H          3.68690       11.93584      129.21008
H          2.33182       12.83655      129.99453
H          1.94927       10.77352      132.32060
H          0.63803       11.57838      131.40633
H          0.69311        9.77370      131.51802
N          2.09234       11.35171      126.66903
C          2.79654       11.24172      125.39677
C          4.03459       12.11151      125.36063
O          4.35049       12.77524      126.33494
C          1.85120       11.46848      124.18170
C          1.44704       12.89944      123.87825
N          0.61649       13.60034      124.67959
O          1.85007       13.41875      122.84715
H          1.53951       12.19483      126.86591
H          3.16986       10.20136      125.28068
H          0.95527       10.82462      124.27814
H          2.38332       11.10098      123.27939
H          0.20980       13.18275      125.52290
H          0.33940       14.56008      124.42339
N          4.82248       12.08561      124.25422
C          6.07000       12.82094      124.09043
C          5.91219       14.34783      124.06748
O          6.93666       15.01528      124.03132
C          6.83279       12.32464      122.82742
C          6.10532       12.51937      121.50808
C          6.40371       13.62817      120.70000
C          5.15625       11.58242      121.04631
C          5.74753       13.81350      119.47801
C          4.49845       11.77322      119.83041
C          4.78741       12.88863      119.04325
O          4.14422       13.05510      117.87041
H          4.53522       11.44228      123.51847
H          6.71562       12.57263      124.96238
H          7.08686       11.24691      122.93360
H          7.81040       12.85276      122.78938
H          7.14044       14.35422      121.01871
H          4.92138       10.68907      121.60687
H          5.98567       14.67682      118.87094
H          3.76682       11.04653      119.49783
H          4.31705       13.81037      117.29115
N          4.69842       14.97703      124.11095
C          4.53751       16.43440      124.15355
C          3.92526       16.89497      125.47795
O          3.70507       18.08670      125.64269
C          3.67512       16.90517      122.96751
C          4.33109       16.57560      121.62051
C          3.50179       17.09019      120.48029
O          3.25362       18.40944      120.36586
O          3.05894       16.31840      119.64492
H          3.83920       14.41516      124.13669
H          5.52199       16.94706      124.07843
H          3.55121       18.00933      123.03306
H          2.66913       16.43345      123.02335
H          4.44769       15.47583      121.52742
H          5.33696       17.04627      121.56533
N          3.69302       16.01482      126.49074
C          3.21181       16.36323      127.81857
C          4.31594       16.16446      128.85190
O          4.05197       16.39793      130.02364
C          1.99719       15.47339      128.15760
C          0.77152       15.82532      127.30267
C         -0.38224       14.88042      127.51472
O         -0.27213       13.81335      128.32823
O         -1.42282       15.05667      126.90325
H          3.92421       15.03141      126.35307
H          2.91527       17.43324      127.88047
H          1.71541       15.60968      129.22090
H          2.28488       14.40795      128.00777
H          1.04461       15.79955      126.23038
H          0.44472       16.85673      127.55732
N          5.58055       15.77577      128.50223
C          6.66064       15.62195      129.45515
H          7.48416       16.31640      129.18482
H          6.34645       15.84286      130.49623
H          7.04210       14.58070      129.41395
H          5.82219       15.59183      127.51875
Ca        -3.08411       11.84999      126.59234
O         -4.23333       10.69072      130.64076
H         -3.95680       10.85657      131.57536
H         -5.14932       11.06163      130.58348
O         -1.73733       11.97989      130.28483
H         -1.63241       11.32153      131.01624
H         -1.21120       12.76028      130.57871
O         -1.45639       11.63448      124.25621
H         -1.42800       10.79945      124.78825
H         -2.27948       11.56977      123.71412

Ca 1.0



