%chk=holoCaM.loop2.water2.frame220.chk
%nprocshared=20
%mem=10GB
%nosave
#b3lyp/svp scf=(tight,noincore,xqc) Test 
#IOP(5/87=12) Density=Current Pop=(MK,readradii) iop(6/33=2) iop(6/42=6)

holoCaM.loop2.water2.frame220 

   -2  1 
C         20.00098       55.37497       26.13799
C         19.80948       53.90695       26.40737
O         20.78714       53.17775       26.46857
H         19.03250       55.92126       26.15436
H         20.64306       55.81039       26.93424
H         20.48082       55.53226       25.15204
N         18.56255       53.41588       26.63126
C         18.29595       52.05553       27.08352
C         18.62816       50.98804       26.04001
O         18.09379       51.05772       24.94174
C         16.79780       51.94175       27.45044
C         16.48609       50.72491       28.26271
O         15.20956       50.45597       28.59175
O         17.38232       50.01811       28.69019
H         17.77122       54.07654       26.57454
H         18.88950       51.89762       28.01101
H         16.18717       51.94980       26.52122
H         16.48438       52.80682       28.07101
N         19.44555       49.93213       26.34507
C         19.70961       48.81829       25.42771
C         19.27893       47.45007       25.97874
O         19.36393       46.48496       25.23170
C         21.20791       48.77173       25.11015
H         19.88638       49.91295       27.27360
H         19.15817       48.97357       24.47538
H         21.53848       49.73509       24.66928
H         21.79222       48.58341       26.03751
H         21.42986       47.96007       24.38360
N         18.86906       47.26974       27.26940
C         18.56209       45.95960       27.86362
C         17.20115       45.89870       28.55601
O         16.84587       44.82320       29.01947
C         19.67186       45.58373       28.87990
C         20.06346       46.75563       29.74115
O         19.14770       47.45376       30.43718
O         21.20931       47.17266       29.69072
H         18.85475       48.08360       27.89372
H         18.53890       45.16627       27.08461
H         20.57657       45.28121       28.30781
H         19.36933       44.71073       29.49798
N         16.39521       46.98528       28.69540
C         15.12312       46.95689       29.39649
C         15.26528       46.47831       30.82684
O         14.61509       45.50290       31.17493
H         16.68153       47.87611       28.29124
H         14.41916       46.29486       28.84671
H         14.68841       47.97930       29.40504
N         16.09123       47.11247       31.71159
C         16.23851       46.69535       33.10974
C         15.79819       47.77887       34.09965
O         15.88306       47.54200       35.29675
C         17.68249       46.21971       33.39279
C         18.75553       47.27797       33.34400
N         20.02872       46.94790       33.64968
O         18.49259       48.42964       33.04086
H         16.63538       47.91997       31.37529
H         15.59262       45.81243       33.30868
H         17.94593       45.41259       32.67415
H         17.70380       45.78197       34.41436
H         20.27805       45.98364       33.91198
H         20.76471       47.66312       33.63584
N         15.28082       48.96992       33.67997
C         14.73315       49.98005       34.57359
C         15.72595       51.02945       35.04608
O         15.27328       51.98811       35.65656
H         15.12567       49.12001       32.67649
H         14.20395       49.50823       35.43059
H         13.95882       50.53045       33.99716
N         17.07057       50.93616       34.82991
C         18.03346       51.95377       35.26240
C         18.92786       52.40963       34.11332
O         18.85322       51.86159       33.02346
C         18.90779       51.38908       36.41461
C         18.08017       51.14377       37.67643
O         19.52710       50.18741       36.02923
H         17.43893       50.09316       34.37714
H         17.50859       52.85985       35.63760
H         19.68147       52.12977       36.71961
H         20.33652       50.42977       35.50834
H         18.73964       50.77281       38.48987
H         17.61591       52.09577       38.01476
H         17.28229       50.39484       37.49420
N         19.85915       53.38302       34.32916
C         20.88490       53.76707       33.36699
C         22.17257       53.10646       33.80822
O         22.56254       53.23755       34.96135
C         21.04219       55.31589       33.26847
C         19.75625       55.94859       32.67866
C         22.27569       55.68169       32.40668
C         19.79829       57.47906       32.60617
H         19.92416       53.79871       35.27089
H         20.64111       53.39085       32.34807
H         21.21471       55.72047       34.29070
H         18.89010       55.66825       33.31467
H         19.57789       55.55260       31.65445
H         22.16221       55.30147       31.36942
H         22.44790       56.77490       32.37890
H         23.20330       55.25787       32.84167
H         19.96838       57.90932       33.61537
H         20.58900       57.83679       31.91560
H         18.83193       57.85792       32.21324
N         22.90151       52.40088       32.90428
C         24.12791       51.69126       33.21922
C         25.34270       52.49034       32.78871
O         25.21024       53.58271       32.25198
C         24.10844       50.30990       32.52759
C         22.96139       49.46132       32.98681
O         21.80984       49.82075       32.80046
O         23.20477       48.28359       33.59202
H         22.57714       52.37641       31.93102
H         24.22164       51.55141       34.31912
H         25.04332       49.75717       32.74928
H         24.04371       50.44127       31.42435
N         26.58216       51.99222       33.04424
C         27.82930       52.68084       32.74999
C         27.95637       53.03771       31.26881
O         28.16223       54.21278       31.00292
C         29.01164       51.82728       33.26228
C         30.35114       52.51321       33.18559
C         30.60296       53.67021       33.94429
C         31.37724       51.97682       32.39014
C         31.86279       54.27527       33.90968
C         32.63425       52.58750       32.35572
C         32.87795       53.73379       33.11690
H         26.64161       51.07489       33.51231
H         27.83484       53.62798       33.33563
H         29.03705       50.86534       32.71924
H         28.83889       51.57825       34.33243
H         29.83187       54.09410       34.57539
H         31.20751       51.08333       31.80224
H         32.05442       55.15942       34.50404
H         33.42189       52.16697       31.74437
H         33.85448       54.19972       33.09582
N         27.83770       52.13532       30.23908
C         27.97019       52.52182       28.84031
C         26.77064       53.32320       28.34758
O         26.90985       54.02614       27.35588
C         28.10836       51.17529       28.11833
C         27.22461       50.27262       28.95127
C         27.57842       50.71291       30.37094
H         28.89952       53.10806       28.66470
H         27.89739       51.19287       27.02739
H         29.15004       50.80856       28.26578
H         26.17350       50.55546       28.73689
H         27.32823       49.18219       28.76875
H         26.72004       50.47344       31.02867
H         28.50282       50.20811       30.71502
N         25.55116       53.22934       28.95115
C         24.36444       53.93789       28.47377
C         24.35355       55.39018       28.93104
O         23.45682       56.11602       28.52462
C         23.09254       53.22477       28.98580
C         23.04827       51.77377       28.47605
C         21.96642       50.91311       29.05199
O         21.07359       51.34579       29.96413
O         21.92112       49.74697       28.69862
H         25.44654       52.58593       29.74854
H         24.34148       53.90176       27.36057
H         22.17527       53.75753       28.65323
H         23.12331       53.24844       30.08617
H         23.98835       51.25368       28.73232
H         22.95197       51.78335       27.36904
N         25.29155       55.87894       29.79533
C         25.30135       57.24053       30.28687
H         26.26605       57.71933       30.01824
H         24.47353       57.85025       29.87018
H         25.20512       57.22648       31.39328
H         26.03301       55.26641       30.15391
Ca        19.70330       49.64750       30.57191
O         18.34754       52.91860       30.40525
H         17.69538       53.54491       30.00454
H         19.22362       53.36253       30.28756
O         16.86561       50.68989       31.55031
H         16.43924       51.45099       32.01715
H         16.13777       50.30070       31.00869

Ca 1.0



