%chk=holoCaM.loop2.water2.frame22.chk
%nprocshared=20
%mem=10GB
%nosave
#b3lyp/svp scf=(tight,noincore,xqc) Test 
#IOP(5/87=12) Density=Current Pop=(MK,readradii) iop(6/33=2) iop(6/42=6)

holoCaM.loop2.water2.frame22 

   -2  1 
C         80.51648        1.39677       19.27834
C         80.29854        0.31936       18.25667
O         79.19744        0.17796       17.74568
H         81.30090        2.09455       18.91161
H         79.58590        1.97383       19.45856
H         80.85857        0.94502       20.23279
N         81.34491       -0.46341       17.88745
C         81.27384       -1.47390       16.83845
C         80.35670       -2.64470       17.19362
O         80.17338       -2.94300       18.36507
C         82.70428       -1.94988       16.53318
C         82.76276       -2.97375       15.45612
O         83.36003       -4.15446       15.69951
O         82.27508       -2.74326       14.36347
H         82.25690       -0.27665       18.33522
H         80.88108       -0.97990       15.92122
H         83.17009       -2.37006       17.45008
H         83.30259       -1.07129       16.20861
N         79.71087       -3.31787       16.19240
C         78.75959       -4.40810       16.39183
C         79.00476       -5.61004       15.45776
O         78.19829       -6.52942       15.50199
C         77.34879       -3.85328       16.14604
H         79.84651       -2.98335       15.23232
H         78.78397       -4.76045       17.44601
H         76.57879       -4.62740       16.35131
H         77.15716       -2.99553       16.82723
H         77.22975       -3.50793       15.09887
N         80.06654       -5.68579       14.58973
C         80.23227       -6.78335       13.61158
C         81.60762       -6.86696       12.89447
O         81.77634       -7.80213       12.12362
C         79.11105       -6.69800       12.54270
C         79.17189       -5.40853       11.78059
O         80.15592       -4.52902       12.02823
O         78.30979       -5.13656       10.96057
H         80.74631       -4.92829       14.62791
H         80.13105       -7.74638       14.15856
H         78.11704       -6.75569       13.03162
H         79.17833       -7.54568       11.82752
N         82.64229       -5.99876       13.11082
C         83.98518       -6.18271       12.57224
C         84.19832       -5.79746       11.11656
O         85.31184       -5.99021       10.64889
H         82.54301       -5.24205       13.77922
H         84.29651       -7.23563       12.74383
H         84.68344       -5.54172       13.15467
N         83.22981       -5.23564       10.33734
C         83.44303       -4.88293        8.92564
C         84.38775       -3.68044        8.67953
O         84.53549       -3.29643        7.52756
C         82.07856       -4.68596        8.21742
C         81.28477       -3.48636        8.65115
N         80.06954       -3.25055        8.10938
O         81.73129       -2.71814        9.48277
H         82.29096       -5.11256       10.73994
H         83.88266       -5.76933        8.41708
H         81.46232       -5.59545        8.39164
H         82.24759       -4.59722        7.12268
H         79.67043       -3.89227        7.40925
H         79.52710       -2.42333        8.39088
N         85.08764       -3.06485        9.68005
C         86.03757       -1.97298        9.47643
C         85.43204       -0.58354        9.30770
O         86.20695        0.35961        9.23364
H         85.04448       -3.44687       10.62797
H         86.72313       -2.21643        8.63548
H         86.66321       -1.90187       10.39315
N         84.08824       -0.36045        9.25613
C         83.47597        0.96812        9.15480
C         82.46469        1.21258       10.27524
O         82.19282        0.32549       11.07049
C         82.78703        1.12175        7.76759
C         83.82195        1.33361        6.66249
O         82.00378       -0.00407        7.46026
H         83.46098       -1.16714        9.27383
H         84.23891        1.77103        9.25850
H         82.15173        2.03358        7.72688
H         81.22006        0.00969        8.06788
H         84.52496        0.47909        6.59501
H         83.30792        1.46236        5.68582
H         84.39806        2.26372        6.86654
N         81.83443        2.42250       10.34472
C         80.74983        2.76311       11.26003
C         79.46756        2.70747       10.45230
O         79.35824        3.36406        9.42553
C         80.98172        4.17595       11.88609
C         82.15673        4.18758       12.90158
C         79.70570        4.76531       12.52618
C         81.84288        3.53692       14.25862
H         82.06857        3.12909        9.63141
H         80.66320        2.01755       12.07753
H         81.25335        4.85960       11.05135
H         82.43277        5.24322       13.11451
H         83.04232        3.69427       12.44699
H         78.90656        4.89470       11.76761
H         79.30981        4.10499       13.32462
H         79.91739        5.77011       12.94922
H         82.74518        3.56602       14.90453
H         81.04677        4.09881       14.79219
H         81.51744        2.48764       14.14780
N         78.44905        1.91760       10.88061
C         77.20403        1.71153       10.15470
C         76.17045        2.69774       10.62866
O         76.46085        3.51634       11.48703
C         76.68655        0.28566       10.43456
C         77.67528       -0.76296       10.05113
O         78.92773       -0.67141       10.52384
O         77.32227       -1.74890        9.42419
H         78.56199        1.42576       11.77748
H         77.36273        1.83654        9.06058
H         75.72154        0.07582        9.92754
H         76.52078        0.18934       11.53102
N         74.92069        2.67584       10.10464
C         73.86599        3.56782       10.54901
C         73.52785        3.34361       12.03368
O         73.63707        4.31231       12.77054
C         72.67099        3.46639        9.57670
C         71.50612        4.33778        9.95529
C         71.65956        5.72741       10.09703
C         70.23995        3.76076       10.14760
C         70.56139        6.52389       10.43037
C         69.14413        4.56150       10.47361
C         69.30433        5.94200       10.61596
H         74.71851        2.00500        9.34638
H         74.23949        4.61181       10.44612
H         72.33553        2.42352        9.45865
H         73.02601        3.77774        8.56973
H         72.62395        6.19596        9.94848
H         70.09815        2.69231       10.03625
H         70.68500        7.59311       10.53983
H         68.17066        4.11010       10.61210
H         68.45374        6.56070       10.86730
N         73.14624        2.13790       12.57651
C         72.86159        1.93761       13.99967
C         73.98109        2.39244       14.91648
O         73.72534        3.06226       15.90754
C         72.72699        0.41052       14.13389
C         72.16867        0.02719       12.79223
C         73.00385        0.89015       11.85237
H         71.90042        2.43803       14.25202
H         73.73097       -0.07140       14.18519
H         72.14268        0.07660       15.01817
H         72.18820       -1.05957       12.56337
H         71.11454        0.38588       12.75651
H         74.01428        0.46244       11.67886
H         72.43873        0.95848       10.91375
N         75.25720        2.01877       14.63612
C         76.41210        2.27232       15.49058
C         76.58335        3.76173       15.71262
O         76.59886        4.19554       16.85597
C         77.67644        1.64002       14.86057
C         77.51848        0.10748       14.70493
C         78.64728       -0.55156       13.97911
O         79.63761        0.06831       13.63029
O         78.52790       -1.84908       13.65640
H         75.39999        1.51652       13.74891
H         76.25625        1.78066       16.47767
H         78.56592        1.84929       15.49467
H         77.84360        2.09805       13.86353
H         76.62166       -0.13801       14.10796
H         77.39697       -0.37023       15.70028
N         76.66732        4.61208       14.65658
C         76.75965        6.04547       14.81354
H         75.87690        6.42007       15.37519
H         77.69085        6.31128       15.35458
H         76.77071        6.53185       13.81435
H         76.62986        4.23220       13.70666
Ca        79.85839       -2.47303       11.34260
O         83.29663       -2.30842       11.93402
H         83.95667       -1.57458       11.86780
H         83.77683       -3.01948       12.42845
O         83.09910        0.06741       13.74381
H         83.64324        0.71029       14.26156
H         82.16271        0.31622       13.93832

Ca 1.0



