%chk=holoCaM.loop4.water3.frame432.chk
%nprocshared=20
%mem=10GB
%nosave
#b3lyp/svp scf=(tight,noincore,xqc) Test 
#IOP(5/87=12) Density=Current Pop=(MK,readradii) iop(6/33=2) iop(6/42=6)

holoCaM.loop4.water3.frame432 

   -3  1 
C        111.00565       77.68653       37.48445
C        111.61666       76.35922       37.81747
O        111.11404       75.67885       38.69935
H        110.10860       77.87700       38.11234
H        111.74582       78.49467       37.65181
H        110.69299       77.68910       36.41802
N        112.68847       75.90852       37.10681
C        113.27569       74.58819       37.28811
C        114.78612       74.68531       37.46682
O        115.43992       75.36352       36.68629
C        112.95724       73.74086       36.04595
C        113.28439       72.28607       36.23500
O        113.15600       71.51463       35.29927
O        113.64570       71.80910       37.44179
H        113.05346       76.50093       36.34482
H        112.81307       74.07688       38.16201
H        113.51168       74.14759       35.17336
H        111.86865       73.79311       35.82749
N        115.40945       73.96300       38.43676
C        116.84764       73.97290       38.68324
C        117.46005       72.61229       38.33179
O        118.51226       72.59776       37.70845
C        117.11734       74.36203       40.17427
C        116.46935       75.73765       40.49589
C        118.63193       74.39713       40.47295
C        116.55758       76.14551       41.97055
H        114.83075       73.36366       39.03610
H        117.35537       74.73946       38.05408
H        116.65093       73.59054       40.82680
H        115.39218       75.69255       40.24593
H        116.92643       76.53387       39.86892
H        118.82747       74.61460       41.54225
H        119.10280       73.41429       40.26807
H        119.13444       75.17155       39.85400
H        116.00598       77.09789       42.12238
H        116.09754       75.36777       42.61632
H        117.60585       76.31659       42.28693
N        116.88680       71.43762       38.73371
C        117.54456       70.12900       38.63600
C        116.84060       69.09549       37.73693
O        117.33006       67.97596       37.66980
C        117.75791       69.60532       40.07551
C        116.50047       69.58878       40.89821
O        115.55584       68.90256       40.56372
O        116.40474       70.35765       42.00012
H        115.97442       71.47475       39.20822
H        118.55988       70.23171       38.19444
H        118.47359       70.28782       40.58253
H        118.21086       68.59124       40.05992
N        115.76144       69.39378       36.95823
C        115.16814       68.46192       35.99252
C        114.40224       67.27252       36.57010
O        113.86962       66.50034       35.78551
H        115.40928       70.35452       36.96475
H        115.96336       68.09315       35.30890
H        114.43674       69.02641       35.37398
N        114.27325       67.06865       37.90898
C        113.50205       65.97735       38.52715
C        111.97748       66.01499       38.26812
O        111.29610       65.11477       38.74118
C        113.70207       66.00631       40.06762
C        113.19742       67.29771       40.66798
O        112.91550       68.33060       39.84530
O        113.05862       67.40996       41.87417
H        114.77564       67.71320       38.52603
H        113.89513       65.01086       38.14182
H        114.76985       65.86506       40.33890
H        113.13081       65.15875       40.50626
N        111.36460       67.00563       37.56145
C        109.92590       67.05461       37.31975
C        109.05803       67.48571       38.50358
O        107.85604       67.57040       38.29553
H        111.93840       67.72595       37.11555
H        109.58307       66.07420       36.92251
H        109.73723       67.80703       36.52323
N        109.55467       67.80761       39.73923
C        108.71675       68.29076       40.84776
C        109.16516       69.71185       41.28937
O        109.40873       70.50935       40.17203
C        108.82674       67.32329       42.04238
C        108.37859       65.89847       41.69982
C        108.42449       65.03160       42.93324
N        109.23199       63.94804       42.99437
O        107.72118       65.31392       43.89260
H        110.56042       67.71880       39.90858
H        107.65316       68.35677       40.53041
H        108.18694       67.68635       42.87061
H        109.88120       67.29620       42.39987
H        109.04011       65.48321       40.90892
H        107.33640       65.91182       41.31444
H        109.83641       63.69105       42.20100
H        109.25614       63.36542       43.84463
N        108.19934       70.38637       42.17517
C        108.61332       71.75661       42.55990
C        109.13892       71.79906       43.99301
O        108.38105       71.54709       44.91978
C        107.41450       72.71976       42.34837
C        107.77118       74.16648       42.71425
C        106.94267       72.68215       40.88420
H        107.93654       69.81899       43.01041
H        109.42190       72.12211       41.89259
H        106.56947       72.39473       42.99490
H        108.61762       74.53291       42.09490
H        106.89748       74.83284       42.55284
H        108.04188       74.23325       43.78413
H        107.75900       73.00370       40.20104
H        106.62180       71.65901       40.59671
H        106.07309       73.35820       40.74247
N        110.44332       72.11885       44.23865
C        111.01069       72.22734       45.58236
C        110.43383       73.44366       46.30392
O        109.74365       74.23583       45.68600
C        112.55733       72.33892       45.44929
C        113.35061       72.29474       46.73075
N        113.29234       71.21822       47.54657
O        114.09343       73.22191       47.01280
H        111.06377       72.26962       43.43129
H        110.76374       71.29559       46.13643
H        112.80338       73.26923       44.89266
H        112.91671       71.48255       44.84646
H        112.69430       70.41260       47.31678
H        113.86140       71.18538       48.40494
N        110.68382       73.66469       47.61887
C        110.29285       74.88866       48.32629
C        110.98335       76.10078       47.71012
O        110.32591       77.09516       47.44183
C        110.54989       74.74644       49.85416
C        111.92073       74.21864       50.22960
C        112.04249       72.87935       50.64530
C        113.07584       75.01354       50.15307
C        113.29264       72.33508       50.93468
C        114.33031       74.46531       50.44289
C        114.44210       73.11969       50.82429
O        115.64458       72.56864       51.08257
H        111.19957       72.93401       48.12541
H        109.19359       75.04841       48.23486
H        109.79855       74.00027       50.19521
H        110.31845       75.68541       50.40287
H        111.16910       72.24229       50.71587
H        113.01190       76.05252       49.85957
H        113.36630       71.29550       51.22809
H        115.21471       75.08406       50.36172
H        116.46879       73.06747       50.99620
N        112.30711       76.04702       47.40364
C        113.07686       77.13221       46.80483
C        112.47257       77.54866       45.47480
O        112.21243       78.72735       45.27385
C        114.53913       76.64705       46.61032
C        115.51613       77.73039       46.13214
C        115.68666       78.81427       47.15890
O        116.14365       78.51136       48.39003
O        115.42507       79.97306       46.88079
H        112.79410       75.16602       47.59726
H        113.08351       77.99653       47.50459
H        114.55169       75.80970       45.87839
H        114.92303       76.24643       47.57526
H        115.17337       78.15292       45.16323
H        116.51015       77.26065       45.96781
N        112.21354       76.61027       44.52502
C        111.67112       76.90402       43.20068
C        110.32389       77.59978       43.30535
O        110.19498       78.71877       42.82933
C        111.54576       75.59517       42.38386
C        112.92710       74.97197       42.10776
C        112.85278       73.62709       41.44548
O        113.88030       73.00616       41.23443
O        111.67242       73.07385       41.11955
H        112.41399       75.63049       44.77245
H        112.37106       77.58257       42.66220
H        111.04865       75.79831       41.41041
H        110.92036       74.87294       42.95307
H        113.48481       74.82461       43.05259
H        113.50483       75.66740       41.46808
N        109.27443       76.99605       43.92015
C        107.97582       77.61746       44.05128
H        107.28277       76.92939       44.58252
H        108.06212       78.55577       44.63825
H        107.55528       77.83719       43.04756
H        109.40126       76.06097       44.31011
Ca       111.60850       70.10878       40.08179
O        112.97853       70.34127       42.60394
H        113.81746       69.89320       42.87652
H        112.25795       69.74330       42.92671
O        111.01172       70.07878       37.23824
H        111.88192       69.90859       36.80154
H        110.42497       70.39383       36.50756
O        110.50698       72.58912       38.25723
H        110.39070       73.21367       39.01262
H        109.69052       72.71107       37.71254

Ca 1.0



