%chk=holoCaM-CaMKII.loop2.water0.frame134.chk
%nprocshared=20
%mem=10GB
%nosave
#b3lyp/svp scf=(tight,noincore,xqc) Test 
#IOP(5/87=12) Density=Current Pop=(MK,readradii) iop(6/33=2) iop(6/42=6)

holoCaM-CaMKII.loop2.water0.frame134 

   -2  1 
C         19.51276       57.00684       69.42738
C         18.16513       56.59733       68.92194
O         18.05728       56.18462       67.77500
H         20.28432       56.86888       68.63995
H         19.48446       58.07810       69.71663
H         19.78456       56.39260       70.31061
N         17.07633       56.68282       69.73683
C         15.74196       56.31685       69.28742
C         15.33040       57.24522       68.15480
O         15.34405       58.45433       68.33634
C         14.75227       56.29036       70.47412
C         13.47629       55.60762       70.07714
O         12.66262       56.19943       69.40243
O         13.28854       54.30381       70.37974
H         17.21014       57.00594       70.70777
H         15.79289       55.27415       68.92057
H         14.56503       57.29609       70.90982
H         15.21245       55.65704       71.26232
N         14.99935       56.73067       66.93835
C         14.76842       57.52381       65.73943
C         13.29847       57.53087       65.38627
O         12.73221       58.60820       65.26530
C         15.61186       56.95219       64.59261
H         14.93546       55.71144       66.84528
H         15.08907       58.57802       65.89588
H         15.46776       57.55088       63.66850
H         16.68900       56.97560       64.86494
H         15.33135       55.89741       64.37931
N         12.60239       56.36781       65.24655
C         11.16700       56.32012       64.97214
C         10.35866       57.17350       65.95187
O          9.48471       57.90647       65.51177
C         10.65051       54.85758       64.89454
C         10.90881       53.95645       66.07939
O         11.63146       54.35961       67.13519
O         10.49242       52.80993       66.05650
H         13.11134       55.47987       65.37101
H         10.98472       56.75036       63.96213
H         11.13277       54.36767       64.02126
H          9.55567       54.88845       64.70622
N         10.64015       57.17063       67.27996
C          9.96536       57.97727       68.28437
C          9.27053       57.13361       69.33928
O          8.74964       57.71187       70.28251
H         11.41219       56.59112       67.59276
H          9.20624       58.64748       67.82837
H         10.72931       58.61703       68.77847
N          9.16846       55.77488       69.23189
C          8.40120       54.95558       70.17023
C          9.04276       54.79634       71.55517
O          8.42563       54.15216       72.39254
C          8.07614       53.57367       69.54288
C          9.26299       52.69127       69.25308
N          9.07826       51.45308       68.74140
O         10.39289       53.08638       69.47297
H          9.55190       55.31715       68.39493
H          7.41159       55.44493       70.30923
H          7.53275       53.73812       68.58634
H          7.39629       53.02444       70.22834
H          8.12957       51.10220       68.54525
H          9.88493       50.84175       68.54493
N         10.24622       55.35205       71.89127
C         10.82733       55.23744       73.22598
C         11.33768       53.84976       73.59304
O         11.77828       53.69194       74.72267
H         10.74873       55.93356       71.20958
H         10.06977       55.56519       73.97275
H         11.69356       55.92876       73.30559
N         11.32462       52.80560       72.71445
C         11.76477       51.45046       73.03886
C         12.86806       51.03163       72.07821
O         12.62221       51.01248       70.88494
C         10.54716       50.50400       72.92794
C         10.90468       49.05862       73.27723
O          9.53688       50.93053       73.80644
H         10.96149       52.95956       71.77032
H         12.14474       51.39959       74.08305
H         10.16051       50.50649       71.87968
H          9.01260       51.62791       73.33229
H         11.67605       48.66179       72.58451
H         11.28450       48.99733       74.31918
H          9.99925       48.42171       73.18812
N         14.10389       50.66503       72.52583
C         15.21432       50.32573       71.63049
C         14.87152       49.18259       70.69564
O         14.39477       48.14487       71.13211
C         16.52690       50.00041       72.41626
C         17.04769       51.21647       73.23052
C         17.65327       49.47745       71.49006
C         17.39575       52.45815       72.39430
H         14.26339       50.64782       73.54337
H         15.42774       51.20481       70.99209
H         16.31104       49.17738       73.13392
H         17.96257       50.90197       73.77868
H         16.29924       51.51364       73.99206
H         17.36112       48.51976       71.01102
H         17.89586       50.20221       70.68626
H         18.57239       49.26379       72.07512
H         16.49899       52.87842       71.89579
H         17.79927       53.24657       73.06165
H         18.16785       52.23418       71.63025
N         15.24393       49.29467       69.38802
C         15.12262       48.23656       68.39684
C         16.52853       47.71610       68.11202
O         17.46851       48.45728       68.32661
C         14.47001       48.82962       67.11967
C         13.28149       49.69882       67.47057
O         12.33159       49.23993       68.08400
O         13.36313       51.02861       67.23472
H         15.72039       50.15721       69.08584
H         14.49981       47.41060       68.80277
H         14.20437       48.02850       66.39779
H         15.21181       49.49909       66.62836
N         16.76505       46.46046       67.63847
C         18.11939       45.96536       67.35000
C         18.88915       46.90752       66.41669
O         19.98604       47.29433       66.80416
C         18.06600       44.54641       66.74790
C         19.44348       43.99756       66.43519
C         19.90879       44.00266       65.10866
C         20.27139       43.47776       67.44798
C         21.17561       43.50165       64.79864
C         21.53437       42.95974       67.12922
C         21.98591       42.97452       65.80620
H         15.95717       45.84490       67.46452
H         18.68303       45.89948       68.30958
H         17.46986       44.59347       65.81513
H         17.53856       43.84269       67.42828
H         19.29513       44.40975       64.31534
H         19.93597       43.45619       68.47733
H         21.52714       43.52079       63.77515
H         22.16522       42.54484       67.90556
H         22.96323       42.57820       65.56008
N         18.41727       47.34968       65.20529
C         19.13048       48.29017       64.34223
C         19.61505       49.53015       65.08788
O         20.77724       49.87622       64.93414
C         18.12006       48.60571       63.22369
C         16.77469       48.30378       63.86260
C         17.10880       47.04980       64.64788
H         20.03217       47.82557       63.88303
H         18.21954       49.60277       62.74394
H         18.24787       47.83398       62.43074
H         16.50670       49.11201       64.57071
H         15.93441       48.17845       63.14694
H         16.30711       46.81244       65.36084
H         17.22460       46.19998       63.93812
N         18.81256       50.21757       65.94290
C         19.26428       51.39006       66.69355
C         20.44963       51.04299       67.58114
O         21.49100       51.66955       67.44165
C         18.10952       51.95453       67.53918
C         16.97414       52.47431       66.64159
C         15.79048       52.92258       67.43094
O         14.81140       53.34475       66.83988
O         15.77513       52.83284       68.77588
H         17.85615       49.87419       66.08721
H         19.57876       52.18752       65.98257
H         18.47431       52.80021       68.16476
H         17.73065       51.15906       68.21549
H         16.61476       51.68264       65.95401
H         17.34801       53.32568       66.03192
N         20.36826       50.04041       68.49836
C         21.45966       49.63243       69.35691
H         22.36599       50.25646       69.21635
H         21.13785       49.70427       70.41692
H         21.72041       48.57554       69.13525
H         19.49520       49.51661       68.58748
Ca        12.97288       52.60627       68.85211

Ca 1.0



