%chk=holoCaM.loop4.water3.frame304.chk
%nprocshared=20
%mem=10GB
%nosave
#b3lyp/svp scf=(tight,noincore,xqc) Test 
#IOP(5/87=12) Density=Current Pop=(MK,readradii) iop(6/33=2) iop(6/42=6)

holoCaM.loop4.water3.frame304 

   -3  1 
C         20.31178       44.21510       85.86224
C         21.62280       44.86412       85.53207
O         21.63095       45.80763       84.75887
H         19.50419       44.58533       85.19436
H         20.37767       43.11148       85.80581
H         20.04400       44.51042       86.90233
N         22.75960       44.47542       86.17749
C         23.91553       45.35558       86.29626
C         25.23247       44.59391       86.44014
O         25.31965       43.74097       87.31258
C         23.62241       46.16580       87.56723
C         24.69738       47.09308       87.99143
O         25.16756       46.98440       89.11168
O         25.19079       48.03974       87.18929
H         22.66867       43.71119       86.86568
H         23.98723       46.05907       85.43749
H         23.43309       45.46283       88.40985
H         22.69654       46.75305       87.41138
N         26.32414       44.90784       85.66555
C         27.64450       44.29508       85.84820
C         28.73123       45.30750       86.27876
O         29.83088       44.85131       86.56001
C         28.08240       43.46308       84.59048
C         28.47043       44.32791       83.35881
C         26.99234       42.43328       84.23053
C         29.07071       43.50348       82.20734
H         26.22340       45.62398       84.94030
H         27.58307       43.56427       86.68311
H         28.99471       42.89839       84.88821
H         29.25209       45.05652       83.66171
H         27.59389       44.89273       82.98152
H         27.33667       41.73052       83.44531
H         26.72949       41.82186       85.11815
H         26.07613       42.94296       83.86455
H         29.39521       44.17798       81.38696
H         29.95864       42.93395       82.55927
H         28.33489       42.79485       81.77621
N         28.52920       46.66812       86.33378
C         29.58923       47.63477       86.69787
C         29.21137       48.66376       87.78306
O         30.07660       49.43242       88.17991
C         30.10421       48.37847       85.43894
C         29.08956       49.17371       84.64837
O         27.77588       49.12442       84.92144
O         29.46471       49.83174       83.69223
H         27.61474       47.03042       86.04281
H         30.46363       47.08230       87.10623
H         30.55228       47.63453       84.74613
H         30.91749       49.06871       85.75450
N         27.95678       48.75796       88.29044
C         27.51662       49.72065       89.29548
C         27.73574       51.17231       88.89903
O         28.33594       51.89620       89.68119
H         27.27060       48.09088       87.95775
H         28.03748       49.51976       90.25734
H         26.42910       49.56778       89.47274
N         27.24545       51.68162       87.72996
C         27.42574       53.08392       87.32252
C         26.10887       53.86217       87.33999
O         26.09092       55.00572       86.90507
C         28.10322       53.16026       85.93248
C         27.16332       52.85134       84.80232
O         26.48543       51.69678       84.78361
O         26.97758       53.67162       83.91724
H         26.72061       51.04575       87.11314
H         28.11557       53.59758       88.02601
H         28.97536       52.47188       85.90620
H         28.48640       54.19300       85.77071
N         24.97294       53.31638       87.85997
C         23.68521       53.98942       87.90050
C         22.94273       54.01204       86.57304
O         21.81217       54.47599       86.57485
H         25.02741       52.40237       88.32275
H         23.80316       55.01294       88.31776
H         23.03116       53.42029       88.59664
N         23.47018       53.50046       85.42088
C         22.75157       53.43541       84.14519
C         22.63108       51.98201       83.70443
O         23.18706       51.10909       84.35616
C         23.54256       54.20760       83.05837
C         23.75384       55.69855       83.36105
C         22.48948       56.50273       83.20155
N         21.74242       56.85059       84.27257
O         22.14295       56.85618       82.08381
H         24.41939       53.10981       85.43784
H         21.72727       53.85836       84.24187
H         23.05227       54.11473       82.06477
H         24.54217       53.73129       82.97908
H         24.49324       56.10464       82.63581
H         24.19989       55.83318       84.36929
H         22.01095       56.55515       85.21950
H         20.88160       57.40451       84.15114
N         21.93433       51.65706       82.57657
C         21.88461       50.30899       82.01453
C         22.49916       50.33302       80.60977
O         22.27166       51.26892       79.85684
C         20.46558       49.68482       82.13045
C         19.37106       50.47661       81.41304
C         20.46616       48.22343       81.65408
H         21.44152       52.40851       82.07120
H         22.51498       49.63338       82.62787
H         20.20201       49.66818       83.21312
H         18.38831       49.98332       81.58183
H         19.29978       51.50164       81.83015
H         19.56554       50.52646       80.32297
H         21.20480       47.63495       82.23664
H         19.47080       47.75750       81.81545
H         20.71713       48.15894       80.57509
N         23.36126       49.34521       80.24060
C         24.23355       49.34473       79.06354
C         23.79856       48.28390       78.05642
O         22.82321       47.59386       78.29464
C         25.65998       49.07505       79.62854
C         26.82249       48.94306       78.68094
N         27.20605       49.97131       77.89395
O         27.45461       47.89687       78.65450
H         23.46087       48.55154       80.88166
H         24.20176       50.32594       78.54316
H         25.62055       48.13594       80.22666
H         25.90011       49.90791       80.30890
H         26.70214       50.86817       77.91716
H         28.01830       49.86681       77.26735
N         24.48988       48.10460       76.89310
C         24.24090       47.02168       75.93950
C         24.32843       45.66980       76.63231
O         23.40232       44.87982       76.50902
C         25.30585       47.06465       74.80720
C         24.98304       48.03278       73.69182
C         23.98206       47.68873       72.76584
C         25.69943       49.22841       73.50936
C         23.71039       48.51233       71.67088
C         25.41313       50.06235       72.41797
C         24.42339       49.69995       71.49021
O         24.15482       50.47541       70.41943
H         25.27252       48.74092       76.69631
H         23.22462       47.10389       75.49435
H         25.39373       46.07191       74.31229
H         26.30820       47.26385       75.24939
H         23.43308       46.76149       72.87473
H         26.47762       49.51533       74.20497
H         22.95298       48.21874       70.95424
H         25.96829       50.98264       72.28494
H         24.63434       51.29669       70.24074
N         25.43271       45.32577       77.34929
C         25.64196       43.99448       77.92217
C         24.72964       43.67440       79.10970
O         24.86122       42.59257       79.66619
C         27.12082       43.81881       78.35880
C         28.15180       44.18500       77.26875
C         27.87546       43.50930       75.95512
O         27.86662       42.16644       75.86813
O         27.64619       44.18041       74.96062
H         26.17823       46.02840       77.42143
H         25.45440       43.24363       77.12338
H         27.27134       42.75285       78.64178
H         27.33521       44.44272       79.25476
H         29.16697       43.90951       77.62280
H         28.16162       45.28321       77.11078
N         23.79906       44.55887       79.56451
C         22.98683       44.36112       80.75707
C         21.52366       44.24308       80.36715
O         20.91772       43.22346       80.66485
C         23.21506       45.55811       81.69410
C         24.68505       45.67881       82.13587
C         24.98554       46.95671       82.86574
O         26.26122       47.24950       83.17597
O         24.10453       47.75119       83.14628
H         23.67438       45.44917       79.07656
H         23.27467       43.43161       81.29778
H         22.56056       45.48335       82.57892
H         22.93869       46.47002       81.13586
H         25.33864       45.67597       81.24054
H         24.95558       44.81498       82.77872
N         20.89478       45.24308       79.68711
C         19.51580       45.18543       79.24925
H         18.95013       46.02642       79.70193
H         19.48214       45.28939       78.14370
H         19.02144       44.23195       79.52681
H         21.41410       46.09380       79.45291
Ca        25.55575       49.10065       85.28412
O         22.55180       48.63932       85.61256
H         21.90134       48.70716       86.35510
H         22.02678       48.28740       84.85331
O         26.48458       50.37412       82.54664
H         27.18184       49.69629       82.36774
H         26.89224       51.22886       82.25682
O         23.94246       50.46162       87.33679
H         22.98676       50.67283       87.47273
H         24.26733       50.19038       88.23214

Ca 1.0



