%chk=holoCaM.loop1.water2.frame360.chk
%nprocshared=20
%mem=10GB
%nosave
#b3lyp/svp scf=(tight,noincore,xqc) Test 
#IOP(5/87=12) Density=Current Pop=(MK,readradii) iop(6/33=2) iop(6/42=6)

holoCaM.loop1.water2.frame360 

   0  1 
C        104.12441        4.09970       98.70601
C        104.69973        3.16720       99.72846
O        105.31098        3.64752      100.66656
H        103.40894        4.79246       99.19574
H        104.94671        4.68734       98.24628
H        103.59437        3.54686       97.90276
N        104.52710        1.81986       99.61247
C        105.06806        0.82489      100.53862
C        106.59780        0.80549      100.45113
O        107.15169        0.06261       99.65233
C        104.43735       -0.54540      100.18552
C        104.81557       -1.66610      101.09949
O        104.34607       -2.77436      100.91216
O        105.65502       -1.46840      102.12470
H        103.95741        1.48506       98.81965
H        104.74530        1.07226      101.57644
H        104.71216       -0.82942       99.14694
H        103.33069       -0.44238      100.24004
N        107.33355        1.68660      101.18686
C        108.77346        1.89240      101.02120
C        109.63316        0.73615      101.54612
O        110.83086        0.75032      101.30225
C        109.14473        3.23556      101.70918
C        110.56121        3.78768      101.48826
C        110.88153        3.99765       99.99923
C        112.22613        4.70258       99.76235
N        112.19744        6.10778      100.17697
H        106.82270        2.31431      101.81948
H        108.94661        2.00598       99.93039
H        108.98071        3.14509      102.80317
H        108.44205        4.01227      101.33074
H        111.32344        3.12667      101.95059
H        110.59333        4.75861      102.02445
H        110.07698        4.58611       99.50627
H        110.93423        3.00074       99.51403
H        112.44021        4.66810       98.67140
H        113.04170        4.16009      100.28954
H        112.05014        6.19940      101.20598
H        113.11399        6.54993       99.93816
H        111.44039        6.61596       99.66341
N        109.10465       -0.27580      102.29471
C        109.89038       -1.38245      102.86179
C        109.40680       -2.76092      102.40808
O        110.02739       -3.74484      102.78793
C        109.91703       -1.29058      104.41171
C        108.56281       -1.30567      105.09126
O        107.43562       -1.36493      104.35439
O        108.49785       -1.20851      106.30460
H        108.10257       -0.23106      102.49908
H        110.94804       -1.30653      102.52468
H        110.42110       -0.33772      104.68615
H        110.53810       -2.12141      104.81386
N        108.33402       -2.91962      101.58473
C        107.87538       -4.20616      101.08780
C        107.40570       -5.15329      102.17107
O        107.89517       -6.27265      102.22213
H        107.83142       -2.09286      101.24350
H        108.68437       -4.68127      100.49106
H        107.01375       -4.03147      100.40774
N        106.42486       -4.78808      103.04351
C        105.81290       -5.70499      104.00406
C        104.30044       -5.76859      103.79509
O        103.59867       -6.24329      104.67829
C        106.21253       -5.32778      105.45211
C        105.69716       -4.02118      105.97478
O        106.04944       -3.61561      107.20833
O        104.94203       -3.33684      105.31620
H        106.06995       -3.82237      103.00575
H        106.20330       -6.73780      103.87313
H        107.32172       -5.31134      105.50563
H        105.84880       -6.11787      106.14449
N        103.72948       -5.35185      102.62377
C        102.29813       -5.38185      102.38676
C        101.53512       -4.32031      103.15309
O        100.31448       -4.36864      103.10009
H        104.32644       -5.05828      101.84007
H        101.91490       -6.39444      102.64064
H        102.09115       -5.20793      101.30785
N        102.15362       -3.29888      103.82648
C        101.40332       -2.26536      104.54378
C        102.19190       -0.92207      104.73043
O        103.13653       -0.72730      103.72098
C        100.95489       -2.76129      105.95314
C         99.89357       -3.86617      105.96214
O        102.06727       -3.16373      106.71275
H        103.17095       -3.20216      103.74067
H        100.52106       -2.00582      103.91417
H        100.47861       -1.90859      106.48178
H        102.42230       -4.00148      106.31355
H         99.60095       -4.08115      107.01236
H         98.99068       -3.53135      105.40953
H        100.27843       -4.81026      105.52905
N        101.21097        0.17728      104.67170
C        101.67963        1.57147      104.79022
C        101.57802        2.05550      106.23556
O        100.57742        1.81051      106.89147
C        100.81806        2.45385      103.82586
C        101.12699        2.05466      102.35365
C        101.06419        3.96155      104.03904
C        100.30467        2.80847      101.30437
H        100.34086        0.00263      105.22481
H        102.73309        1.67605      104.44952
H         99.74225        2.26849      104.04247
H        100.91942        0.97198      102.21789
H        102.20521        2.22752      102.13682
H        100.40386        4.57560      103.39592
H        100.80219        4.25157      105.07403
H        102.11826        4.22733      103.82975
H         99.21949        2.65330      101.47778
H        100.53122        3.89411      101.30857
H        100.56437        2.42933      100.29333
N        102.54985        2.87207      106.73471
C        102.50636        3.50035      108.05287
C        102.28933        4.99809      107.88952
O        102.16004        5.47683      106.77761
C        103.82853        3.23439      108.82442
C        104.08774        1.74259      109.05022
O        104.92323        3.84878      108.18688
H        103.32618        3.13036      106.12038
H        101.65790        3.10277      108.64931
H        103.75496        3.68150      109.83710
H        105.22922        3.25569      107.45567
H        103.24940        1.28460      109.61451
H        104.19738        1.22915      108.07613
H        105.02588        1.61011      109.63050
N        102.23466        5.80286      108.98765
C        102.11321        7.25585      108.89898
C        103.33474        7.85648      108.20781
O        103.15526        8.69170      107.33253
C        101.88462        7.88245      110.29489
C        100.56294        7.39029      110.91132
O        102.95613        7.58527      111.15081
H        102.29561        5.36550      109.91528
H        101.20823        7.51614      108.30319
H        101.80700        8.98644      110.15232
H        102.91188        8.23687      111.89861
H        100.57553        6.29440      111.08696
H        100.38544        7.89300      111.88447
H         99.71071        7.62737      110.23804
N        104.60636        7.47990      108.53615
C        105.80181        7.99683      107.85768
C        105.93415        7.55558      106.39518
O        106.81963        8.07942      105.73521
C        107.08782        7.59839      108.62381
C        107.40364        8.52266      109.81391
C        106.30322        8.64867      110.87247
C        106.73819        9.64030      111.96109
N        105.68058        9.83633      112.94988
H        104.72506        6.80346      109.30699
H        105.74715        9.10910      107.83444
H        107.97238        7.71466      107.95898
H        107.04286        6.52610      108.91557
H        107.60325        9.53810      109.40390
H        108.33890        8.15948      110.29377
H        106.08946        7.65497      111.32155
H        105.37990        9.04658      110.40239
H        106.97601       10.62218      111.49186
H        107.65569        9.26411      112.46585
H        104.82353       10.21695      112.48604
H        105.45703        8.93090      113.42200
H        106.00875       10.52457      113.66550
N        105.09722        6.65357      105.80405
C        105.14953        6.33582      104.37321
C        103.95055        6.93779      103.64480
O        103.92497        6.88359      102.42183
C        105.19193        4.81063      104.15177
C        106.40646        4.13716      104.80426
C        106.32060        2.63830      104.69483
O        105.25679        1.98499      105.19096
O        107.22911        1.99782      104.19635
H        104.36725        6.21205      106.36712
H        106.05103        6.79055      103.90884
H        105.19706        4.58411      103.06495
H        104.26650        4.38876      104.58244
H        106.43684        4.39368      105.88037
H        107.34188        4.50678      104.33131
N        102.93281        7.54891      104.31378
C        101.82903        8.20474      103.65430
H        101.13048        8.61379      104.41793
H        102.20954        9.05111      103.04450
H        101.27928        7.48511      103.01511
H        102.92242        7.56349      105.33386
Ca       105.24502       -0.80347      104.67229
O        103.80771       -1.13280      107.40604
H        104.48158       -1.57956      107.97550
H        103.01258       -1.03872      107.98898
O        106.66373        0.56093      107.38145
H        107.00816        0.53493      108.30851
H        107.35382        1.05983      106.87693

Ca 1.0



