%chk=holoCaM-CaMKII.loop1.water1.frame487.chk
%nprocshared=20
%mem=10GB
%nosave
#b3lyp/svp scf=(tight,noincore,xqc) Test 
#IOP(5/87=12) Density=Current Pop=(MK,readradii) iop(6/33=2) iop(6/42=6)

holoCaM-CaMKII.loop1.water1.frame487 

   0  1 
C         74.54439       91.41444       92.02572
C         73.43545       92.08911       92.77061
O         72.35207       92.20743       92.21964
H         75.47418       91.37686       92.63034
H         74.23816       90.37567       91.77975
H         74.74736       91.96921       91.08641
N         73.61924       92.52633       94.04788
C         72.55209       93.14328       94.82216
C         72.24941       94.53357       94.27085
O         72.99995       95.46360       94.53346
C         72.96066       93.17570       96.30604
C         71.87091       93.66831       97.19508
O         70.80010       93.08613       97.25727
O         72.09714       94.74019       97.96370
H         74.53251       92.35778       94.49818
H         71.65538       92.48663       94.74362
H         73.86317       93.81482       96.43301
H         73.22316       92.14823       96.63661
N         71.21872       94.71302       93.39941
C         70.95237       95.97812       92.72255
C         70.34213       97.00064       93.66437
O         70.94694       98.04026       93.88571
C         70.04965       95.75262       91.48065
C         70.66825       94.81531       90.41526
C         72.03378       95.31795       89.91850
C         72.58885       94.47871       88.76542
N         73.89799       94.98929       88.35393
H         70.68026       93.88285       93.12427
H         71.90992       96.40194       92.35921
H         69.85492       96.73591       90.99984
H         69.06892       95.32585       91.78566
H         69.96068       94.76607       89.55889
H         70.77831       93.78459       90.81278
H         72.77193       95.27108       90.74569
H         71.92965       96.37003       89.57545
H         71.88667       94.52503       87.90403
H         72.69200       93.41738       89.08405
H         73.82167       95.99371       88.07051
H         74.58043       94.90198       89.14253
H         74.24805       94.43415       87.54087
N         69.12771       96.77951       94.23453
C         68.46352       97.72283       95.13193
C         69.32706       98.05752       96.35087
O         69.50847       99.24288       96.59524
C         67.00465       97.27905       95.42895
C         66.85047       95.84067       95.81270
O         66.30213       95.05318       95.05753
O         67.29081       95.41395       96.99083
H         68.64874       95.90260       93.99811
H         68.32530       98.68836       94.59341
H         66.44050       97.40453       94.47911
H         66.52922       97.94108       96.18551
N         69.97538       97.10836       97.09205
C         70.91489       97.45562       98.16475
C         70.58332       96.84017       99.51785
O         71.32829       97.08471      100.45650
H         69.86692       96.11517       96.83857
H         70.97428       98.55528       98.31129
H         71.93188       97.13549       97.85964
N         69.47402       96.07333       99.71367
C         69.02507       95.60978      101.03127
C         69.78466       94.40556      101.60412
O         69.40498       93.95181      102.67445
C         67.49731       95.38774      100.98878
C         67.02347       94.32205      100.04904
O         65.86816       94.35611       99.65705
O         67.83715       93.36662       99.57118
H         68.84233       95.93804       98.91513
H         69.14532       96.45114      101.75009
H         67.06972       96.35014      100.62208
H         67.06553       95.20605      101.99384
N         70.88054       93.86300      100.99575
C         71.68344       92.79367      101.58682
C         71.20450       91.38864      101.25798
O         71.84983       90.44366      101.69047
H         71.24163       94.30010      100.14439
H         71.75952       92.93846      102.68705
H         72.71487       92.87404      101.18254
N         70.09815       91.16771      100.50056
C         69.58200       89.85590      100.12376
C         69.45368       89.78238       98.60942
O         68.85909       90.67101       98.01462
C         68.22042       89.60550      100.81588
C         68.40355       89.41135      102.32386
O         67.33425       90.67334      100.60445
H         69.57189       91.97885      100.17129
H         70.25901       89.03661      100.45500
H         67.77694       88.65422      100.43653
H         66.92294       90.53457       99.71523
H         67.42192       89.20885      102.80190
H         69.06778       88.54082      102.51783
H         68.84913       90.31410      102.79193
N         69.96112       88.72303       97.91936
C         69.88618       88.59811       96.46664
C         68.68477       87.73979       96.10565
O         68.54135       86.65161       96.64826
C         71.21839       88.02483       95.89408
C         72.41904       88.90236       96.34211
C         71.14317       87.93820       94.35390
C         73.78170       88.37930       95.88064
H         70.37523       87.93965       98.44948
H         69.75203       89.60095       96.00528
H         71.36452       86.99735       96.29681
H         72.45117       88.93141       97.45229
H         72.28877       89.94204       95.97218
H         70.29357       87.30229       94.03356
H         71.01880       88.94996       93.91052
H         72.05307       87.46900       93.93015
H         73.93886       87.33932       96.23784
H         73.87767       88.41176       94.77676
H         74.58307       89.02317       96.30070
N         67.79951       88.16213       95.15576
C         66.61891       87.41029       94.74492
C         66.85030       86.77008       93.39063
O         67.88118       86.99921       92.77593
C         65.36586       88.33629       94.68112
C         64.99026       88.94135       96.03813
O         65.53251       89.34549       93.71304
H         68.01251       89.02786       94.64522
H         66.42559       86.58117       95.46038
H         64.48528       87.73713       94.36748
H         66.03528       90.09649       94.12128
H         65.81957       89.56575       96.42888
H         64.08770       89.58122       95.91830
H         64.75980       88.13799       96.76693
N         65.91728       85.93359       92.86737
C         66.01103       85.33561       91.53713
C         66.00307       86.41977       90.47158
O         66.81619       86.37828       89.56108
C         64.83534       84.35725       91.29028
C         64.91866       83.14191       92.22394
O         63.60580       85.01585       91.46574
H         65.08338       85.73252       93.44148
H         66.95091       84.74485       91.44353
H         64.91754       83.98815       90.24097
H         62.90845       84.44319       91.05262
H         64.84784       83.44099       93.29003
H         64.08889       82.43890       92.00168
H         65.87948       82.60695       92.06571
N         65.11218       87.44497       90.56541
C         64.99409       88.54389       89.60832
C         66.33777       89.21891       89.40417
O         66.77441       89.34243       88.26747
C         63.95906       89.57451       90.12765
C         62.53739       88.98378       90.23333
C         61.59228       89.93083       90.98234
C         60.20757       89.28966       91.16013
N         59.33818       90.13286       91.97942
H         64.51252       87.45741       91.40101
H         64.64225       88.15502       88.62663
H         63.92100       90.45817       89.45256
H         64.29125       89.92246       91.13079
H         62.55015       88.03595       90.80581
H         62.14923       88.75987       89.21570
H         61.50003       90.89672       90.43987
H         62.01949       90.12657       91.99099
H         60.31750       88.30186       91.66231
H         59.74133       89.12488       90.16361
H         59.20692       91.06638       91.52784
H         58.40760       89.66676       92.08095
H         59.75510       90.25527       92.93144
N         67.05926       89.65701       90.47087
C         68.35776       90.31536       90.35463
C         69.35464       89.39880       89.66033
O         69.85874       89.77196       88.61047
C         68.85651       90.76875       91.74958
C         67.91021       91.83778       92.33853
C         68.30127       92.27602       93.71961
O         68.49842       93.45315       93.95198
O         68.36688       91.39364       94.72884
H         66.66215       89.49836       91.40731
H         68.24478       91.23198       89.73227
H         69.87255       91.20937       91.65817
H         68.91630       89.88927       92.42850
H         66.87703       91.44980       92.40537
H         67.89469       92.71910       91.65968
N         69.65475       88.17131       90.16770
C         70.53938       87.22399       89.51699
H         71.38233       86.97573       90.19444
H         69.97558       86.29281       89.29321
H         70.95343       87.61292       88.56312
H         69.22088       87.87763       91.04772
Ca        67.74555       93.27080       97.36919
O         65.28943       91.58004       98.00758
H         64.76029       90.90333       98.50021
H         64.71851       92.38765       97.99937

Ca 1.0



