%chk=holoCaM-CaMKII.loop1.water2.frame482.chk
%nprocshared=20
%mem=10GB
%nosave
#b3lyp/svp scf=(tight,noincore,xqc) Test 
#IOP(5/87=12) Density=Current Pop=(MK,readradii) iop(6/33=2) iop(6/42=6)

holoCaM-CaMKII.loop1.water2.frame482 

   0  1 
C         73.13994       84.79626       74.69854
C         73.18081       85.73292       75.87120
O         72.25019       86.49298       76.06860
H         72.21561       84.94357       74.10113
H         74.02032       84.97347       74.04446
H         73.16808       83.74727       75.06256
N         74.25752       85.72516       76.69518
C         74.42603       86.57343       77.86809
C         75.58562       87.51203       77.58427
O         76.69778       87.28946       78.03770
C         74.54027       85.64523       79.09741
C         75.05206       86.26571       80.36864
O         76.02262       85.75316       80.90005
O         74.53487       87.36926       80.94273
H         75.02640       85.07161       76.47446
H         73.55325       87.22061       78.06514
H         75.22611       84.80426       78.85360
H         73.53539       85.20874       79.28623
N         75.35980       88.59399       76.77773
C         76.38482       89.54634       76.34540
C         77.01270       90.36493       77.48060
O         77.97928       91.06240       77.20527
C         75.78747       90.55391       75.32302
C         75.20150       89.94597       74.03127
C         76.26081       89.22503       73.18338
C         75.74535       88.81449       71.79226
N         74.65198       87.84333       71.85500
H         74.40020       88.71755       76.42289
H         77.19905       88.96793       75.86034
H         76.57084       91.28283       75.01962
H         74.97631       91.12635       75.82795
H         74.79036       90.78976       73.43434
H         74.36095       89.26157       74.26423
H         76.63416       88.32681       73.71858
H         77.11381       89.91970       73.02258
H         76.59395       88.36300       71.23196
H         75.41223       89.71732       71.23330
H         73.80555       88.26508       72.29846
H         74.39965       87.55947       70.88056
H         74.95248       86.99442       72.38629
N         76.51427       90.37171       78.75067
C         77.08683       91.16432       79.85244
C         77.57272       90.28726       81.01154
O         78.09496       90.83596       81.97214
C         76.09621       92.27173       80.31616
C         74.76519       91.76244       80.79424
O         73.87927       92.54072       81.10045
O         74.55936       90.43924       80.81183
H         75.68166       89.80199       78.93243
H         77.98920       91.70939       79.49919
H         75.90677       92.93869       79.44629
H         76.56348       92.88468       81.11739
N         77.51464       88.92317       80.96349
C         78.13886       88.05264       81.95033
C         77.45674       87.96748       83.30360
O         77.97229       87.23938       84.13991
H         77.12056       88.46339       80.13631
H         79.19810       88.36209       82.08042
H         78.15325       87.01933       81.54368
N         76.31007       88.64010       83.61030
C         75.67087       88.54428       84.92936
C         75.06761       87.16464       85.24039
O         74.54255       86.99801       86.33440
C         74.60350       89.65366       85.08833
C         73.43087       89.55591       84.15077
O         72.46630       90.49330       84.20085
O         73.33342       88.63813       83.35452
H         75.90475       89.27373       82.90800
H         76.44651       88.76033       85.69731
H         75.09600       90.63646       84.92497
H         74.21408       89.63928       86.12943
N         75.09709       86.13244       84.35008
C         74.51393       84.82322       84.59690
C         73.00201       84.88090       84.64379
O         72.40723       84.33344       85.55014
H         75.55248       86.25918       83.43759
H         74.94265       84.35839       85.51225
H         74.76994       84.16729       83.73621
N         72.34609       85.48665       83.61325
C         70.88538       85.55891       83.40867
C         70.60853       86.11194       81.99421
O         71.51381       86.62600       81.36892
C         70.13238       86.44082       84.45664
C         69.98055       85.87793       85.87720
O         70.68947       87.72525       84.52253
H         72.96673       85.86550       82.89012
H         70.48688       84.52261       83.41952
H         69.08402       86.53683       84.09733
H         71.55858       87.64781       84.99534
H         69.53325       84.86269       85.84990
H         70.93546       85.87077       86.43223
H         69.30460       86.54266       86.45766
N         69.37821       85.97155       81.39587
C         69.15767       86.40508       80.00897
C         67.96937       87.35809       79.93333
O         66.84776       86.93275       80.15746
C         68.97860       85.17068       79.06887
C         70.16743       84.18123       79.23660
C         68.86175       85.63445       77.60068
C         70.02375       82.88636       78.43294
H         68.62265       85.48738       81.89567
H         70.04883       86.94473       79.63983
H         68.04523       84.63824       79.35643
H         70.23729       83.87185       80.30104
H         71.12134       84.67883       78.95731
H         68.67526       84.78202       76.91842
H         68.01203       86.33305       77.46994
H         69.79367       86.14806       77.28158
H         70.87993       82.21626       78.66138
H         69.08438       82.36310       78.71165
H         70.03400       83.07650       77.34156
N         68.16000       88.67922       79.62810
C         67.05432       89.63668       79.51400
C         66.27486       89.45203       78.22056
O         66.67675       88.68423       77.36211
C         67.55875       91.11271       79.54291
C         68.17095       91.51107       80.88173
O         68.43955       91.38058       78.47922
H         69.12699       89.01165       79.52550
H         66.36997       89.49553       80.37979
H         66.69358       91.79751       79.42686
H         69.34643       91.06101       78.72174
H         67.44013       91.35723       81.70335
H         69.06888       90.90756       81.06781
H         68.46069       92.58312       80.85684
N         65.15495       90.20037       78.01100
C         64.43731       90.29090       76.74080
C         65.31314       90.93880       75.67398
O         65.33730       90.43903       74.55850
C         63.13068       91.10686       76.90617
C         62.12425       90.34845       77.78648
O         63.41286       92.37024       77.45460
H         64.81993       90.77888       78.79560
H         64.13623       89.27673       76.39095
H         62.67054       91.23361       75.89876
H         62.56328       92.88390       77.45774
H         62.52545       90.17547       78.80633
H         61.17987       90.92603       77.86967
H         61.88405       89.36587       77.32524
N         66.09011       92.02905       75.96186
C         66.98482       92.68207       74.99925
C         67.85093       91.65219       74.29962
O         67.85181       91.58576       73.07844
C         67.90169       93.69822       75.73942
C         68.91030       94.39863       74.80673
C         69.95562       95.19528       75.60129
C         70.98493       95.83664       74.65761
N         72.05160       96.49830       75.40851
H         66.08428       92.37899       76.93222
H         66.37887       93.21820       74.23623
H         68.47437       93.14900       76.51681
H         67.28699       94.46552       76.25826
H         68.36511       95.05657       74.09626
H         69.47236       93.63788       74.22478
H         70.48924       94.49529       76.28279
H         69.46249       95.98121       76.21320
H         70.47486       96.57625       74.00150
H         71.43999       95.05162       74.01251
H         72.72430       96.93221       74.73552
H         71.65524       97.24442       76.02424
H         72.56717       95.79675       75.98909
N         68.61214       90.81197       75.04074
C         69.49051       89.79238       74.49020
C         68.70655       88.82095       73.63080
O         69.05952       88.65112       72.47201
C         70.20744       89.08275       75.65092
C         71.21830       90.04510       76.31098
C         71.83606       89.49757       77.55594
O         72.70738       90.13883       78.11927
O         71.41860       88.33323       78.08333
H         68.54288       90.89808       76.06321
H         70.26911       90.26461       73.84865
H         70.76215       88.20818       75.26308
H         69.45112       88.72414       76.38633
H         70.74042       91.00560       76.59370
H         72.02290       90.26024       75.57456
N         67.60874       88.18174       74.11692
C         66.78969       87.28529       73.32706
H         65.76249       87.70106       73.25235
H         67.18291       87.14637       72.29803
H         66.74251       86.29462       73.82364
H         67.31563       88.36043       75.08325
Ca        72.92893       88.92050       80.63190
O         69.71246       89.30723       82.68687
H         70.62077       89.33992       82.29381
H         69.68001       90.08512       83.29939
O         71.28150       91.95447       80.80917
H         71.10063       92.92659       80.85664
H         71.57158       91.80147       79.87559

Ca 1.0



