%chk=holoCaM-CaMKII.loop3.water2.frame280.chk
%nprocshared=20
%mem=10GB
%nosave
#b3lyp/svp scf=(tight,noincore,xqc) Test 
#IOP(5/87=12) Density=Current Pop=(MK,readradii) iop(6/33=2) iop(6/42=6)

holoCaM-CaMKII.loop3.water2.frame280 

   0  1 
C         30.10979       29.14105       81.95816
C         30.07884       27.83766       82.70283
O         31.11171       27.20692       82.87523
H         29.71808       29.95083       82.61167
H         31.14184       29.40302       81.64628
H         29.46464       29.06809       81.05729
N         28.89834       27.39314       83.20426
C         28.74829       26.16765       83.97956
C         28.94767       24.94172       83.09243
O         28.40903       24.90735       81.99480
C         27.34392       26.16888       84.61729
C         27.12265       25.13679       85.68670
O         26.02095       25.04665       86.20161
O         28.11061       24.34034       86.13028
H         28.06891       27.99222       83.06230
H         29.48721       26.18305       84.80638
H         26.59459       26.04278       83.80910
H         27.16806       27.14933       85.10984
N         29.69201       23.88484       83.52343
C         29.95935       22.68540       82.72423
C         28.66781       22.00275       82.26599
O         28.57413       21.64579       81.10033
C         30.88341       21.73429       83.52255
C         31.51048       20.61813       82.67052
C         32.58437       19.86189       83.47398
C         33.32312       18.83339       82.60550
N         34.37675       18.16230       83.36888
H         30.09127       23.93977       84.47224
H         30.53410       23.00051       81.82509
H         30.34877       21.30797       84.39666
H         31.73173       22.34875       83.89509
H         32.00732       21.08623       81.79250
H         30.72895       19.91615       82.30813
H         32.11609       19.35445       84.34533
H         33.33495       20.59193       83.85103
H         33.78551       19.35103       81.73498
H         32.60291       18.07739       82.22328
H         33.96356       17.64608       84.17892
H         34.87013       17.48060       82.74794
H         35.07312       18.86207       83.71598
N         27.60774       21.86770       83.11561
C         26.30031       21.31445       82.73511
C         25.21558       22.39170       82.75324
O         24.53050       22.52393       81.74743
C         25.88735       20.04597       83.54887
C         25.92719       20.11028       85.05482
O         26.51306       21.14769       85.64974
O         25.54625       19.16392       85.72339
H         27.73077       22.24753       84.06078
H         26.33065       20.94821       81.68333
H         26.56061       19.21095       83.26053
H         24.85692       19.76804       83.23443
N         25.01025       23.21200       83.82588
C         23.96893       24.23750       83.86303
C         23.03942       24.12513       85.05983
O         22.07597       24.87780       85.09669
H         25.64289       23.13751       84.62670
H         23.34095       24.19163       82.94738
H         24.43433       25.24320       83.88780
N         23.23844       23.22606       86.07099
C         22.28193       23.03434       87.16383
C         22.07330       24.25506       88.06295
O         21.19277       24.19288       88.91062
C         22.67328       21.79827       88.01339
C         23.88145       22.01053       88.89957
N         23.80291       21.79481       90.23403
O         24.94130       22.36338       88.41181
H         24.05230       22.60009       86.02797
H         21.30913       22.79603       86.68061
H         22.87446       20.94637       87.32785
H         21.80934       21.51156       88.64937
H         22.92399       21.48155       90.67058
H         24.62866       21.92727       90.83620
N         22.84731       25.37548       87.96947
C         22.69033       26.54256       88.82422
C         23.89859       26.75729       89.71375
O         23.93858       27.77062       90.39525
H         23.61169       25.41396       87.28226
H         21.79880       26.46213       89.48511
H         22.54485       27.43081       88.17300
N         24.88794       25.81850       89.81255
C         26.02544       25.93203       90.71372
C         27.31683       25.65587       89.97393
O         27.40033       24.63777       89.30313
C         25.92836       24.89199       91.84426
C         24.71416       25.06667       92.72045
C         24.85208       25.61463       94.00592
C         23.44279       24.65921       92.28147
C         23.73898       25.75583       94.83719
C         22.33230       24.78744       93.12024
C         22.47786       25.33673       94.40261
O         21.41803       25.46127       95.22607
H         24.80764       24.94028       89.28370
H         26.06593       26.93102       91.20233
H         26.84187       25.02159       92.46752
H         25.94968       23.85188       91.45604
H         25.82132       25.93948       94.36372
H         23.31110       24.22421       91.30030
H         23.86025       26.18496       95.82355
H         21.36177       24.45441       92.77457
H         20.53207       25.16647       94.97219
N         28.40423       26.46179       90.14557
C         29.72137       26.13082       89.60745
C         30.66907       25.81360       90.74675
O         30.65399       26.49591       91.75993
C         30.25187       27.20580       88.60222
C         30.52454       28.62662       89.15625
C         29.25724       27.31260       87.44395
C         31.87275       28.77267       89.86551
H         28.31610       27.29757       90.74132
H         29.65971       25.20122       89.00029
H         31.19819       26.83058       88.14760
H         29.68026       28.97567       89.78596
H         30.60568       29.32718       88.29516
H         29.64491       27.98119       86.64562
H         29.13987       26.31196       87.00743
H         28.26669       27.68341       87.78009
H         31.96516       28.16261       90.77401
H         32.69409       28.49370       89.16965
H         32.01428       29.83396       90.15822
N         31.55276       24.78578       90.61554
C         32.59817       24.47722       91.58382
C         33.93017       24.89135       90.98207
O         33.93518       25.42681       89.89013
C         32.55024       22.98126       91.94345
O         32.76356       22.19340       90.80358
H         31.55502       24.25078       89.73770
H         32.46312       25.06304       92.51816
H         31.55116       22.75029       92.37765
H         33.33067       22.75357       92.70265
H         32.69586       21.24925       91.10280
N         35.10360       24.72277       91.64956
C         36.38456       25.15266       91.08880
C         36.71844       24.40691       89.80673
O         37.00585       25.05122       88.80665
C         37.50555       24.95316       92.10858
H         35.08138       24.30111       92.58901
H         36.34118       26.24525       90.87581
H         37.61330       23.88285       92.38061
H         38.46549       25.32201       91.68643
H         37.28175       25.54083       93.02443
N         36.68648       23.04479       89.76350
C         37.01783       22.25772       88.57607
C         36.20189       22.68670       87.37281
O         36.77949       22.96630       86.33185
C         36.78145       20.76654       88.84916
H         36.39611       22.54465       90.61891
H         38.09703       22.38888       88.33768
H         37.40898       20.43140       89.70200
H         35.71475       20.57278       89.09500
H         37.05595       20.16416       87.95639
N         34.84908       22.79056       87.46158
C         33.99759       23.21461       86.35235
C         34.43404       24.57629       85.83378
O         34.66371       24.71509       84.64042
C         32.51439       23.23801       86.78404
C         32.02711       21.83110       87.18592
C         30.56662       21.81106       87.51199
O         30.08336       22.56731       88.51335
O         29.81429       21.07684       86.89291
H         34.41955       22.58782       88.37574
H         34.08277       22.48355       85.51724
H         31.90490       23.59266       85.92777
H         32.37049       23.95252       87.62123
H         32.57010       21.46402       88.07891
H         32.21987       21.12489       86.34972
N         34.62623       25.61207       86.69018
C         35.09936       26.91135       86.26998
H         36.07936       26.81125       85.75613
H         34.36119       27.38384       85.59055
H         35.23865       27.56415       87.15965
H         34.47158       25.45863       87.68653
Ca        27.39881       22.50168       87.16145
O         28.00770       22.11055       90.57017
H         27.43847       21.77978       91.30912
H         28.69665       22.66676       91.01341
O         26.77053       19.89250       89.05344
H         26.72713       19.83561       88.06695
H         25.99267       19.36668       89.36656

Ca 1.0



