%chk=holoCaM-CaMKII.loop1.water2.frame460.chk
%nprocshared=20
%mem=10GB
%nosave
#b3lyp/svp scf=(tight,noincore,xqc) Test 
#IOP(5/87=12) Density=Current Pop=(MK,readradii) iop(6/33=2) iop(6/42=6)

holoCaM-CaMKII.loop1.water2.frame460 

   0  1 
C         78.79110       78.09730       45.92246
C         79.97741       78.13717       46.83815
O         80.10713       79.06145       47.61518
H         78.15443       78.99754       46.05819
H         79.12980       78.05205       44.86696
H         78.18611       77.19399       46.14807
N         80.90607       77.15511       46.78881
C         82.06929       77.08566       47.66234
C         83.30065       77.38909       46.82390
O         84.15920       76.54026       46.63713
C         81.98252       75.72901       48.40793
C         83.22528       75.23412       49.08224
O         84.02439       76.02466       49.80440
O         83.59319       74.08958       48.87339
H         80.78891       76.40988       46.08408
H         82.06299       77.87600       48.44363
H         81.66831       74.92717       47.70499
H         81.18026       75.82673       49.17026
N         83.42506       78.64289       46.28197
C         84.53227       79.06172       45.42303
C         85.87498       79.19803       46.14923
O         86.86264       79.42507       45.46325
C         84.24913       80.43893       44.76367
C         82.96122       80.56835       43.93028
C         82.85058       79.52443       42.81029
C         81.75076       79.86123       41.78562
N         80.42486       80.00109       42.38928
H         82.66182       79.31443       46.45358
H         84.63703       78.30320       44.61730
H         85.09802       80.67813       44.08471
H         84.21730       81.22470       45.55164
H         82.98274       81.58496       43.47854
H         82.06614       80.50630       44.58374
H         82.66029       78.52570       43.26025
H         83.80933       79.48104       42.24962
H         81.72419       79.04882       41.02593
H         82.01377       80.80719       41.26180
H         79.72491       80.15984       41.62857
H         80.16949       79.13387       42.91232
H         80.39729       80.82961       43.02589
N         86.00238       79.11335       47.50666
C         87.28234       79.27391       48.20850
C         87.77995       77.94889       48.78828
O         88.87906       77.92482       49.32395
C         87.21488       80.44635       49.22999
C         86.03060       80.37209       50.15462
O         85.84626       79.28739       50.91739
O         85.15692       81.22244       50.09534
H         85.16656       78.91958       48.07245
H         88.08466       79.55277       47.49077
H         87.12587       81.39148       48.64941
H         88.15904       80.50152       49.81328
N         87.08578       76.78737       48.61474
C         87.61575       75.46619       48.91066
C         87.90737       75.22371       50.36731
O         89.00842       74.80436       50.69418
H         86.16333       76.80696       48.16400
H         88.52663       75.28480       48.29949
H         86.85481       74.71461       48.60370
N         86.93305       75.41517       51.29148
C         87.04587       75.04961       52.69722
C         85.95400       74.05149       53.10267
O         85.91637       73.66970       54.26368
C         87.04072       76.32482       53.56879
C         85.80725       77.18617       53.48962
O         85.76421       78.32683       54.20215
O         84.84809       76.87467       52.80292
H         86.05382       75.82920       50.96900
H         88.02130       74.55021       52.88882
H         87.90611       76.95001       53.25855
H         87.19465       76.03700       54.63110
N         85.04645       73.56741       52.19899
C         83.98929       72.62330       52.52395
C         83.00407       73.20811       53.50381
O         82.73457       72.57804       54.51339
H         85.09395       73.85641       51.21407
H         84.42562       71.67655       52.91148
H         83.43195       72.38434       51.59158
N         82.40384       74.40106       53.23426
C         81.44732       75.09403       54.10396
C         80.84578       76.27458       53.34090
O         81.58730       77.07983       52.79122
C         82.05683       75.63147       55.43739
C         82.40300       74.59117       56.51467
O         83.15781       76.46358       55.19639
H         82.63628       74.83508       52.32624
H         80.61511       74.40326       54.36508
H         81.25917       76.24632       55.91161
H         83.91938       75.87160       54.96514
H         82.65988       75.11583       57.45911
H         81.53156       73.93017       56.71036
H         83.29316       73.99111       56.25142
N         79.49445       76.44949       53.30350
C         78.81772       77.50680       52.55641
C         78.27333       78.54360       53.52512
O         77.62583       78.18365       54.50006
C         77.70182       76.88791       51.66317
C         78.33961       75.91985       50.63099
C         76.89004       77.99218       50.95118
C         77.32394       75.15359       49.78228
H         78.90157       75.80443       53.84964
H         79.52664       78.02566       51.87675
H         77.00493       76.31688       52.31702
H         78.94548       75.15750       51.16595
H         79.01597       76.48892       49.95675
H         76.41334       78.66946       51.68919
H         77.54350       78.59333       50.28370
H         76.05913       77.56367       50.35744
H         76.72194       75.83371       49.14771
H         77.86470       74.45989       49.10425
H         76.65035       74.55899       50.43489
N         78.47190       79.87104       53.27290
C         78.02705       80.95661       54.14139
C         76.87985       81.72114       53.49888
O         76.48451       81.39287       52.39012
C         79.21695       81.91545       54.41717
C         80.39001       81.19624       55.08341
O         79.65089       82.48409       53.20616
H         78.94510       80.13541       52.39534
H         77.64758       80.55166       55.10573
H         78.87222       82.72002       55.10597
H         80.09409       83.34479       53.42599
H         80.07408       80.75513       56.05136
H         80.77632       80.39373       54.42170
H         81.21235       81.91928       55.27325
N         76.28392       82.75586       54.15273
C         75.21005       83.56853       53.58038
C         75.69448       84.30278       52.33963
O         75.04501       84.22109       51.30810
C         74.66247       84.59193       54.60770
C         73.98440       83.89754       55.79428
O         75.69349       85.42623       55.07184
H         76.61817       82.97976       55.10281
H         74.35462       82.91343       53.29509
H         73.88667       85.20161       54.08504
H         75.26680       86.26260       55.39391
H         73.15118       83.25616       55.43580
H         74.70211       83.27062       56.36199
H         73.56486       84.66071       56.48308
N         76.85553       85.01803       52.37662
C         77.40892       85.75970       51.24475
C         77.49415       84.88736       50.01400
O         76.97281       85.27413       48.97592
C         78.80524       86.29893       51.63584
C         79.52877       87.04608       50.50424
C         80.86621       87.60311       51.00962
C         81.64968       88.29665       49.88882
N         82.89825       88.86094       50.40193
H         77.39562       85.00268       53.25454
H         76.75020       86.62574       51.01095
H         79.45091       85.45173       51.95838
H         78.67627       86.98561       52.50120
H         78.89507       87.88222       50.13719
H         79.72174       86.34451       49.66281
H         81.48613       86.77379       51.41687
H         80.66635       88.33230       51.82517
H         81.03429       89.11199       49.44858
H         81.88067       87.55783       49.08882
H         82.69098       89.58575       51.12730
H         83.49285       88.10760       50.81808
H         83.42133       89.31026       49.61615
N         78.12620       83.68826       50.06245
C         78.25742       82.82093       48.90289
C         76.89562       82.45219       48.33373
O         76.64756       82.74903       47.17347
C         79.06090       81.56247       49.26135
C         80.52156       81.90368       49.61622
C         81.34480       80.67398       49.86000
O         82.31749       80.44325       49.16023
O         81.03496       79.83327       50.86299
H         78.52330       83.38865       50.96517
H         78.82133       83.36142       48.10842
H         79.04893       80.93148       48.36178
H         78.57464       81.00552       50.09262
H         80.56952       82.53593       50.52581
H         80.97103       82.47218       48.77270
N         75.96084       81.82406       49.09689
C         74.63611       81.47657       48.62282
H         73.87757       82.00412       49.23912
H         74.47719       81.75697       47.56040
H         74.48301       80.38218       48.72493
H         76.18786       81.59232       50.06803
Ca        84.00827       78.19128       50.28147
O         83.10581       79.31268       54.87611
H         83.46450       80.22521       55.00952
H         82.78262       79.04160       55.77175
O         83.18042       81.39566       52.51451
H         84.07695       81.79028       52.65852
H         82.57604       82.17500       52.42820

Ca 1.0



