%chk=holoCaM.loop2.water3.frame368.chk
%nprocshared=20
%mem=10GB
%nosave
#b3lyp/svp scf=(tight,noincore,xqc) Test 
#IOP(5/87=12) Density=Current Pop=(MK,readradii) iop(6/33=2) iop(6/42=6)

holoCaM.loop2.water3.frame368 

   -2  1 
C          0.20261      110.40729       82.45260
C         -1.13678      109.73197       82.47189
O         -1.47936      109.07154       81.50139
H          1.00598      109.65173       82.33699
H          0.23948      111.11587       81.59788
H          0.38137      110.98126       83.38647
N         -1.96605      109.87468       83.54297
C         -3.30976      109.31241       83.58428
C         -4.13251      109.89444       82.44955
O         -4.21166      111.11030       82.33647
C         -3.98147      109.64129       84.93732
C         -5.39315      109.11792       85.07295
O         -5.92289      108.45680       84.19648
O         -6.09736      109.40808       86.17540
H         -1.63748      110.43136       84.34777
H         -3.24700      108.20554       83.49864
H         -4.00738      110.74211       85.06585
H         -3.37120      109.21708       85.76432
N         -4.79332      109.07452       81.58445
C         -5.62715      109.57400       80.50023
C         -6.73765      110.46813       81.04006
O         -6.73397      111.65100       80.72894
C         -6.20129      108.40413       79.68557
H         -4.69888      108.05822       81.70882
H         -4.97991      110.17120       79.82019
H         -5.37304      107.78281       79.28118
H         -6.83973      107.74737       80.31354
H         -6.80547      108.78276       78.83540
N         -7.71618      109.97958       81.85975
C         -8.77161      110.83030       82.42435
C         -8.24768      111.85211       83.43587
O         -8.99371      112.75757       83.78081
C         -9.95395      110.01988       83.01891
C         -9.60096      109.00303       84.07490
O        -10.05252      109.08527       85.20498
O         -8.90252      107.91825       83.69956
H         -7.71276      108.97148       82.04296
H         -9.20633      111.40962       81.57889
H        -10.44746      109.45875       82.19628
H        -10.70708      110.73393       83.41656
N         -6.97674      111.80464       83.92274
C         -6.39273      112.83096       84.77209
C         -6.95121      112.94835       86.17819
O         -6.46887      113.82297       86.88488
H         -6.35761      111.04992       83.61839
H         -6.49031      113.81104       84.25748
H         -5.30785      112.62520       84.88051
N         -7.93879      112.14656       86.67999
C         -8.45151      112.33684       88.03893
C         -7.44420      111.91628       89.11725
O         -7.73066      112.16637       90.28053
C         -9.82405      111.65368       88.26794
C        -10.95666      112.32254       87.50942
N        -11.06987      112.24115       86.16451
O        -11.80227      112.94325       88.13745
H         -8.34428      111.41291       86.08718
H         -8.63860      113.42549       88.18788
H        -10.07046      111.77462       89.34676
H         -9.79130      110.56574       88.05803
H        -10.40861      111.69629       85.60544
H        -11.84945      112.70709       85.67652
N         -6.24309      111.32586       88.82906
C         -5.21640      111.07347       89.83247
C         -4.77177      109.62817       89.96047
O         -3.84761      109.40848       90.73026
H         -5.99630      111.11458       87.85683
H         -5.53641      111.41277       90.84118
H         -4.32634      111.67520       89.54985
N         -5.36333      108.59129       89.29206
C         -4.94078      107.19525       89.46482
C         -4.51667      106.58743       88.12582
O         -4.76622      107.17905       87.09073
C         -6.09293      106.42877       90.16653
C         -5.77364      104.96820       90.50653
O         -6.40057      107.09872       91.36335
H         -6.16579      108.78204       88.67827
H         -4.04936      107.15221       90.12732
H         -6.97743      106.46015       89.49104
H         -7.35299      106.90708       91.56966
H         -6.63682      104.51377       91.03720
H         -5.60442      104.36185       89.59804
H         -4.88192      104.91033       91.16622
N         -3.80421      105.42451       88.08395
C         -3.30903      104.79839       86.85907
C         -3.90725      103.40550       86.71603
O         -3.82724      102.60554       87.63677
C         -1.74676      104.80582       86.86864
C         -1.26675      106.25937       86.58832
C         -1.15194      103.83329       85.82830
C          0.24556      106.46336       86.67320
H         -3.55046      104.97006       88.97272
H         -3.61590      105.36839       85.96038
H         -1.39255      104.46453       87.86639
H         -1.73251      106.95176       87.32069
H         -1.60083      106.56586       85.56997
H         -1.46803      102.79199       86.04403
H         -1.46751      104.10743       84.80347
H         -0.04539      103.81708       85.87449
H          0.47875      107.52925       86.46360
H          0.60809      106.21065       87.69057
H          0.78779      105.85743       85.92007
N         -4.45722      103.04126       85.51963
C         -4.98429      101.71511       85.21124
C         -3.93362      100.93605       84.44008
O         -2.85587      101.45969       84.21553
C         -6.24349      101.85984       84.33079
C         -7.21875      102.84574       84.89411
O         -7.39217      103.99256       84.21484
O         -7.79857      102.64185       85.94719
H         -4.41250      103.71026       84.74083
H         -5.23016      101.16884       86.14752
H         -6.74088      100.88331       84.15287
H         -5.91739      102.25740       83.34136
N         -4.16793       99.66788       84.00529
C         -3.16385       98.90834       83.26932
C         -2.80127       99.54413       81.92405
O         -1.61582       99.78616       81.73390
C         -3.58946       97.43590       83.10423
C         -2.50890       96.61450       82.43161
C         -1.22073       96.51835       82.99516
C         -2.77874       95.93836       81.22999
C         -0.22462       95.77111       82.36136
C         -1.78024       95.18507       80.60393
C         -0.50404       95.10406       81.16720
H         -5.06830       99.22154       84.23440
H         -2.24776       98.88999       83.89969
H         -4.53900       97.37637       82.53593
H         -3.77825       97.00455       84.11105
H         -0.97911       97.02353       83.92113
H         -3.76060       95.99291       80.77723
H          0.76456       95.70962       82.79727
H         -1.99552       94.66491       79.67997
H          0.26843       94.52390       80.67938
N         -3.70389       99.84546       80.93232
C         -3.30349      100.37835       79.63376
C         -2.69616      101.76645       79.72593
O         -2.04762      102.18245       78.77640
C         -4.59862      100.36097       78.81382
C         -5.65001      100.58192       79.88352
C         -5.14186       99.68616       81.01238
H         -2.55339       99.71037       79.15462
H         -4.62902      101.05861       77.94850
H         -4.75809       99.32663       78.43440
H         -5.57558      101.64302       80.21615
H         -6.69878      100.38382       79.57630
H         -5.58378      100.04862       81.95976
H         -5.39594       98.62063       80.82892
N         -2.87008      102.54541       80.82567
C         -2.22952      103.84221       80.98543
C         -0.76200      103.62226       81.30048
O          0.08852      104.13051       80.58356
C         -2.95417      104.64735       82.08110
C         -4.40731      104.93212       81.64013
C         -5.21363      105.67815       82.65644
O         -4.68360      106.03922       83.83721
O         -6.37016      105.97246       82.40228
H         -3.48382      102.20889       81.58157
H         -2.32596      104.44105       80.05096
H         -2.43070      105.61540       82.24556
H         -2.94664      104.07484       83.02880
H         -4.94199      103.98124       81.43605
H         -4.38710      105.53198       80.70405
N         -0.39578      102.82559       82.34156
C          0.98149      102.52287       82.65876
H          1.52539      103.45127       82.92775
H          1.02152      101.82164       83.52119
H          1.47158      102.03359       81.79008
H         -1.12292      102.38801       82.91599
Ca        -8.42377      105.94151       84.66062
O         -8.45757      107.89331       87.42279
H         -8.24826      108.85871       87.47294
H         -9.42697      107.84328       87.61484
O        -11.07255      105.45297       85.82991
H        -10.84113      105.56509       86.78593
H        -11.01573      106.36705       85.45316
O         -7.47546      105.03611       87.42016
H         -6.92322      104.26556       87.70315
H         -8.29644      104.96642       87.96914

Ca 1.0



