%chk=holoCaM.loop3.water3.frame240.chk
%nprocshared=20
%mem=10GB
%nosave
#b3lyp/svp scf=(tight,noincore,xqc) Test 
#IOP(5/87=12) Density=Current Pop=(MK,readradii) iop(6/33=2) iop(6/42=6)

holoCaM.loop3.water3.frame240 

   0  1 
C         39.11634       89.10874       41.08963
C         38.76775       90.12591       42.13178
O         37.86064       90.91404       41.90545
H         39.95419       88.46022       41.42131
H         38.23061       88.46833       40.89358
H         39.41156       89.62536       40.15350
N         39.42691       90.15135       43.32249
C         39.07505       91.08658       44.37823
C         39.44487       92.51147       43.96759
O         40.56510       92.70121       43.51303
C         39.78928       90.71307       45.69925
C         39.07066       91.32466       46.86780
O         37.87940       91.92087       46.67379
O         39.51840       91.20873       47.99028
H         40.15962       89.44668       43.50095
H         37.98037       90.97200       44.54275
H         40.85569       91.02724       45.65983
H         39.77224       89.61743       45.87324
N         38.58274       93.56347       44.12014
C         38.88182       94.91009       43.62369
C         39.31736       95.85416       44.74219
O         40.47606       96.24876       44.71707
C         37.70346       95.45004       42.78887
C         37.44247       94.55192       41.56330
C         36.25070       94.99884       40.69912
C         36.35124       96.42552       40.12972
N         37.54340       96.61785       39.30246
H         37.68081       93.40067       44.58594
H         39.75564       94.85898       42.93556
H         37.95759       96.47414       42.44531
H         36.78687       95.50761       43.41157
H         37.22618       93.51831       41.90491
H         38.35975       94.50722       40.93888
H         35.32060       94.93310       41.30307
H         36.15480       94.28238       39.85330
H         36.34420       97.16960       40.95439
H         35.44604       96.61095       39.50978
H         38.40958       96.53422       39.88069
H         37.56259       95.91975       38.52426
H         37.51931       97.58026       38.89475
N         38.49472       96.26542       45.75610
C         38.99502       97.11407       46.85549
C         40.08723       96.41505       47.68760
O         40.69852       97.08641       48.50717
C         37.86160       97.65544       47.78407
C         37.04717       96.57118       48.42740
O         36.14022       96.82782       49.20247
O         37.27869       95.32008       48.02413
H         37.50619       95.98205       45.72949
H         39.46168       98.01192       46.39266
H         37.17244       98.29454       47.19097
H         38.31701       98.28964       48.57605
N         40.42352       95.09980       47.50718
C         41.56620       94.46915       48.15073
C         41.42532       94.33078       49.64653
O         42.25338       94.87363       50.36479
H         39.90656       94.52049       46.83300
H         42.48148       95.05104       47.90030
H         41.70037       93.44682       47.73520
N         40.42526       93.57451       50.18526
C         40.27789       93.34168       51.62359
C         40.35942       91.85745       51.99851
O         40.25224       91.55312       53.17694
C         38.96806       93.99200       52.12489
C         37.70759       93.28112       51.69569
N         36.79126       92.87901       52.60642
O         37.49823       93.08206       50.51579
H         39.74394       93.15318       49.53982
H         41.10165       93.85218       52.16666
H         38.93878       95.03860       51.75007
H         38.98881       94.03568       53.23402
H         36.92917       93.05268       53.61157
H         35.92506       92.41064       52.30219
N         40.51960       90.88096       51.05643
C         40.56126       89.45627       51.35352
C         39.27259       88.75173       50.96635
O         39.23988       87.53015       51.05767
H         40.59682       91.13389       50.06851
H         40.74191       89.26517       52.43156
H         41.41623       89.01663       50.79273
N         38.15858       89.43769       50.57565
C         36.89013       88.81097       50.22025
C         36.47495       89.22480       48.82679
O         36.53488       90.40802       48.52042
C         35.75480       89.22242       51.17843
C         35.91506       88.68980       52.58057
C         36.84222       89.25144       53.47328
C         35.10313       87.62618       53.01486
C         36.94868       88.75868       54.77960
C         35.22048       87.12795       54.31306
C         36.14149       87.69552       55.20279
O         36.25588       87.22987       56.46300
H         38.18812       90.46804       50.54494
H         36.95157       87.69961       50.26417
H         34.82194       88.78510       50.75535
H         35.60604       90.32245       51.20200
H         37.46755       90.08009       53.16733
H         34.38138       87.17363       52.34562
H         37.65639       89.20599       55.46576
H         34.59136       86.30357       54.62565
H         35.71356       86.49770       56.79091
N         35.91092       88.32632       47.97599
C         35.37639       88.67669       46.66470
C         33.86310       88.62441       46.74109
O         33.32506       87.63648       47.23199
C         35.89262       87.70843       45.56418
C         37.43483       87.61282       45.57802
C         35.39014       88.18504       44.18024
C         37.98012       86.52715       44.64781
H         35.78142       87.35386       48.30302
H         35.69031       89.70700       46.37809
H         35.48630       86.69511       45.77970
H         37.78238       87.34905       46.59938
H         37.86569       88.59251       45.30287
H         35.79369       89.19678       43.95002
H         35.68757       87.49359       43.36972
H         34.28373       88.23924       44.15209
H         37.55782       85.53911       44.93221
H         37.74527       86.73441       43.58549
H         39.08457       86.47912       44.74465
N         33.10823       89.63389       46.23137
C         31.65491       89.66239       46.27539
C         31.08104       89.45991       44.88635
O         31.83362       89.42568       43.92041
C         31.22163       91.02084       46.86434
O         29.82931       91.11341       46.97628
H         33.58448       90.40723       45.74456
H         31.27175       88.83735       46.91557
H         31.60346       91.83170       46.19800
H         31.67048       91.14156       47.87260
H         29.62519       92.07567       47.11335
N         29.74446       89.28710       44.71079
C         29.10759       89.20414       43.40226
C         29.22818       90.53839       42.68937
O         29.55886       90.56081       41.51318
C         27.63148       88.83095       43.54889
H         29.14506       89.22892       45.55042
H         29.57542       88.39407       42.79662
H         27.16269       88.74439       42.54477
H         27.54891       87.84320       44.05244
H         27.08113       89.58838       44.14498
N         29.02854       91.70221       43.38183
C         29.16331       93.04021       42.80275
C         30.55611       93.34796       42.25162
O         30.72105       94.41894       41.68189
C         28.81168       94.09461       43.86329
H         28.76470       91.62994       44.37602
H         28.43442       93.12582       41.96778
H         29.52783       94.03841       44.71301
H         28.85023       95.11756       43.43180
H         27.78557       93.92113       44.25086
N         31.59256       92.46853       42.35079
C         32.91030       92.68768       41.77871
C         33.08223       91.73659       40.61025
O         33.30761       92.20254       39.50191
C         33.99229       92.51082       42.86360
C         33.77599       93.51854       44.00552
C         34.84929       93.43569       45.04692
O         35.07864       92.28631       45.70310
O         35.49884       94.42686       45.33103
H         31.45830       91.57889       42.83579
H         33.00505       93.72183       41.37722
H         34.99105       92.67472       42.40687
H         33.96377       91.47626       43.27354
H         32.80093       93.31979       44.49843
H         33.75646       94.54987       43.58911
N         32.92016       90.39287       40.76354
C         32.95941       89.48002       39.64190
H         32.17228       89.75627       38.90617
H         33.95420       89.51330       39.15247
H         32.75858       88.44395       39.98948
H         32.72115       90.00317       41.69294
Ca        36.67590       93.20860       48.03201
O         34.40623       94.49782       50.69794
H         35.18726       94.50168       50.09046
H         34.71793       94.97735       51.50553
O         34.01667       91.70425       49.24336
H         33.28905       92.35960       49.38341
H         33.66721       90.86307       49.63059
O         33.53140       94.71074       47.68458
H         33.25752       95.29729       46.93557
H         32.68442       94.48398       48.14379

Ca 1.0



