%chk=holoCaM.loop4.water3.frame496.chk
%nprocshared=20
%mem=10GB
%nosave
#b3lyp/svp scf=(tight,noincore,xqc) Test 
#IOP(5/87=12) Density=Current Pop=(MK,readradii) iop(6/33=2) iop(6/42=6)

holoCaM.loop4.water3.frame496 

   -3  1 
C        108.71686       69.88971       27.50538
C        109.29065       68.51000       27.41528
O        109.57766       68.06725       26.31225
H        107.71805       69.86144       27.98300
H        109.40203       70.52695       28.10415
H        108.62508       70.33877       26.49167
N        109.53316       67.78224       28.54584
C        110.31110       66.55250       28.50127
C        109.95928       65.59691       29.64103
O        109.95134       66.00405       30.79401
C        111.80366       66.92242       28.57670
C        112.70308       65.78205       28.19990
O        114.03683       65.93070       28.29066
O        112.24154       64.74850       27.74575
H        109.34550       68.22304       29.45920
H        110.13494       66.05131       27.52207
H        112.04004       67.28148       29.60152
H        112.03095       67.73978       27.86003
N        109.72448       64.28267       29.37203
C        109.39736       63.25829       30.36129
C        110.50604       62.19602       30.44850
O        110.74255       61.72324       31.55201
C        108.00174       62.64598       30.00729
C        106.91241       63.74955       30.13261
C        107.64814       61.43919       30.90289
C        105.53330       63.33036       29.62445
H        109.77862       63.98754       28.39384
H        109.30718       63.70041       31.37962
H        108.03889       62.28194       28.95628
H        107.20815       64.63294       29.53365
H        106.82705       64.07868       31.19164
H        107.59647       61.73983       31.97061
H        106.67757       60.99097       30.60854
H        108.39806       60.62957       30.78969
H        105.10319       62.49977       30.21854
H        104.83501       64.19099       29.70241
H        105.60766       63.03064       28.55984
N        111.19196       61.73923       29.35308
C        112.13724       60.61051       29.40216
C        113.58609       60.93801       29.00684
O        114.41048       60.03531       29.06216
C        111.58575       59.45104       28.54124
C        111.43228       59.75346       27.07118
O        111.74678       60.95885       26.56358
O        111.00642       58.88767       26.32462
H        110.99254       62.16852       28.44319
H        112.20228       60.22134       30.44138
H        110.58800       59.16485       28.93827
H        112.25805       58.57191       28.64600
N        113.98913       62.18470       28.63649
C        115.37484       62.54050       28.33294
C        115.97495       61.91712       27.07633
O        117.14087       62.18293       26.81980
H        113.30075       62.93677       28.64720
H        116.00838       62.27067       29.20587
H        115.43917       63.64194       28.20461
N        115.27660       61.08703       26.25092
C        115.86488       60.43892       25.07711
C        116.37272       61.40647       24.00764
O        117.45662       61.16998       23.49143
C        114.91983       59.37587       24.45882
C        113.55175       59.82734       24.02319
O        113.10981       61.06888       24.26524
O        112.80430       59.02933       23.48238
H        114.30230       60.86787       26.48493
H        116.74502       59.84396       25.41329
H        114.76344       58.56792       25.20521
H        115.43761       58.93088       23.58061
N        115.65416       62.49393       23.61026
C        116.05579       63.37944       22.52213
C        114.96328       63.55285       21.47574
O        115.16109       64.35163       20.57150
H        114.79224       62.72894       24.11622
H        116.98251       63.02591       22.01856
H        116.26891       64.38019       22.95189
N        113.78209       62.86731       21.53860
C        112.65914       63.06297       20.62858
C        111.43365       63.53000       21.45591
O        111.83501       64.57168       22.30065
C        112.36106       61.73338       19.90685
C        113.53920       61.26926       19.03571
C        113.25787       59.96649       18.32355
N        114.18643       59.44167       17.49262
O        112.19770       59.37884       18.48784
H        113.64207       62.17522       22.27654
H        112.89185       63.85065       19.87793
H        111.48432       61.84472       19.23947
H        112.12967       60.95351       20.66725
H        114.44563       61.13343       19.66390
H        113.74777       62.05040       18.27271
H        115.08426       59.92290       17.33752
H        114.00559       58.55440       17.00004
N        110.31994       63.99265       20.60526
C        109.14217       64.47810       21.36124
C        108.00781       63.44660       21.35681
O        107.45496       63.16288       20.30328
C        108.68574       65.83279       20.75006
C        107.46537       66.41867       21.47623
C        109.82829       66.86380       20.79447
H        110.04325       63.31177       19.86532
H        109.42367       64.68599       22.41570
H        108.40959       65.66820       19.68483
H        106.60169       65.72903       21.41414
H        107.70169       66.61682       22.54231
H        107.15871       67.37371       20.99869
H        110.13333       67.06591       21.84443
H        110.71434       66.50265       20.23147
H        109.50353       67.81858       20.32876
N        107.61492       62.84967       22.51966
C        106.50622       61.89794       22.63144
C        105.16640       62.61778       22.48188
O        105.15261       63.83113       22.37308
C        106.59941       61.21168       24.02470
C        105.61904       60.09838       24.28948
N        105.60012       58.99120       23.51354
O        104.84942       60.18527       25.23422
H        108.15206       63.06699       23.36657
H        106.62589       61.12065       21.84580
H        106.48369       61.98590       24.80810
H        107.60780       60.76702       24.13339
H        106.24811       58.89125       22.71985
H        104.93665       58.22859       23.71216
N        103.99260       61.93158       22.47951
C        102.66943       62.56029       22.49558
C        102.43155       63.34012       23.79391
O        102.07138       64.50532       23.70254
C        101.55946       61.52778       22.14843
C        101.60877       60.22002       22.90794
C        102.13059       59.07738       22.27144
C        101.15301       60.11293       24.22797
C        102.23459       57.86692       22.95499
C        101.25048       58.89304       24.91106
C        101.80315       57.77243       24.28269
O        101.91715       56.61372       24.96193
H        104.04896       60.90712       22.46726
H        102.60556       63.29808       21.66158
H        101.73352       61.28628       21.07609
H        100.54371       61.97796       22.19136
H        102.48482       59.12890       21.24910
H        100.72426       60.97212       24.72607
H        102.66104       57.00779       22.45286
H        100.90516       58.81749       25.93391
H        102.31719       55.82553       24.56686
N        102.65709       62.79649       25.03112
C        102.45824       63.54148       26.28703
C        103.39356       64.74198       26.43766
O        103.22975       65.48625       27.39697
C        102.68732       62.63949       27.52992
C        101.74418       61.43808       27.66695
C        100.29624       61.79264       27.89031
O         99.47478       60.89733       28.00145
O         99.89094       63.07264       28.00395
H        102.98046       61.82416       25.07753
H        101.41760       63.92522       26.29264
H        102.59079       63.24022       28.46213
H        103.72610       62.25012       27.47890
H        102.07751       60.83504       28.53896
H        101.84286       60.80362       26.77452
N        104.38406       65.00377       25.54589
C        105.29090       66.13735       25.63688
C        104.80580       67.21643       24.68914
O        104.64362       68.35186       25.11168
C        106.72193       65.68326       25.28988
C        107.22195       64.57241       26.23108
C        108.57394       64.04591       25.83756
O        109.04944       62.92794       26.41607
O        109.23107       64.59273       24.96892
H        104.51062       64.38194       24.74054
H        105.31112       66.56259       26.66642
H        107.41316       66.55248       25.33926
H        106.72726       65.28485       24.25181
H        106.51035       63.72639       26.18852
H        107.26296       64.93538       27.27635
N        104.49049       66.91465       23.40008
C        103.96253       67.88234       22.46848
H        103.02692       68.32499       22.87136
H        104.71337       68.67600       22.28194
H        103.72358       67.37844       21.50609
H        104.58662       65.95270       23.07061
Ca       111.85717       63.62834       24.37833
O        110.09468       61.30180       23.65894
H        110.64259       60.74804       23.04980
H        110.00949       60.76054       24.48293
O        114.39046       65.07535       25.23780
H        114.25288       64.43715       25.98126
H        115.36925       65.08263       25.09766
O        111.77411       66.55815       25.00660
H        112.39784       66.54521       24.23882
H        110.87789       66.52808       24.58925

Ca 1.0



