%chk=holoCaM-CaMKII.loop2.water2.frame203.chk
%nprocshared=20
%mem=10GB
%nosave
#b3lyp/svp scf=(tight,noincore,xqc) Test 
#IOP(5/87=12) Density=Current Pop=(MK,readradii) iop(6/33=2) iop(6/42=6)

holoCaM-CaMKII.loop2.water2.frame203 

   -2  1 
C        -10.78428       75.58290       21.26192
C        -11.90198       75.95655       22.19594
O        -12.29630       75.13624       23.01090
H         -9.88094       75.32003       21.85236
H        -11.08131       74.71441       20.63964
H        -10.51935       76.42535       20.58680
N        -12.44346       77.20327       22.14837
C        -13.47054       77.67536       23.07058
C        -14.78093       76.91694       22.88192
O        -15.28903       76.90291       21.76893
C        -13.70274       79.18584       22.82904
C        -14.53829       79.83866       23.89005
O        -14.81533       81.02308       23.80007
O        -14.93657       79.14845       24.96971
H        -12.06557       77.86592       21.45263
H        -13.08421       77.55314       24.10702
H        -14.17667       79.33325       21.83376
H        -12.72524       79.71444       22.83136
N        -15.40545       76.30351       23.93398
C        -16.68673       75.60473       23.80836
C        -17.81883       76.26739       24.60016
O        -18.94923       75.82120       24.46044
C        -16.51194       74.15207       24.26441
H        -14.96074       76.34328       24.86284
H        -17.01201       75.59612       22.74572
H        -15.72425       73.65350       23.66069
H        -16.21256       74.11799       25.33517
H        -17.45881       73.58361       24.14252
N        -17.60218       77.30243       25.46386
C        -18.64473       77.94009       26.26921
C        -18.63802       79.46073       26.10395
O        -19.67547       79.99691       25.73905
C        -18.55385       77.47103       27.74779
C        -17.15310       77.29352       28.25853
O        -16.74367       76.16621       28.49121
O        -16.29616       78.31685       28.34462
H        -16.64142       77.61756       25.62261
H        -19.65689       77.60879       25.94219
H        -19.00590       76.45380       27.77575
H        -19.16328       78.11615       28.41536
N        -17.53522       80.22473       26.35842
C        -17.51872       81.68046       26.28028
C        -17.15521       82.33510       27.60521
O        -17.10448       83.55628       27.64406
H        -16.65481       79.77063       26.61175
H        -18.50733       82.07981       25.96765
H        -16.77391       81.98653       25.51579
N        -16.90596       81.60651       28.73502
C        -16.61595       82.20273       30.03866
C        -15.35224       83.06119       30.07711
O        -15.18732       83.78516       31.04929
C        -16.56044       81.10765       31.13530
C        -15.48507       80.05685       30.93491
N        -15.35842       79.04446       31.82118
O        -14.73573       80.10136       29.97202
H        -16.98746       80.58679       28.69071
H        -17.47029       82.87439       30.27758
H        -17.54143       80.58477       31.15490
H        -16.40966       81.58731       32.12601
H        -15.98314       78.97633       32.63702
H        -14.63462       78.32395       31.68718
N        -14.41782       83.03417       29.08400
C        -13.26279       83.91842       29.04115
C        -11.93316       83.20937       29.19647
O        -10.92402       83.88018       29.02920
H        -14.53196       82.37841       28.30390
H        -13.30778       84.69658       29.83421
H        -13.28398       84.44656       28.06411
N        -11.83000       81.90382       29.59225
C        -10.54339       81.26365       29.86580
C        -10.38455       79.91690       29.17905
O        -11.36268       79.28952       28.79809
C        -10.38443       81.04264       31.39318
C        -10.31227       82.36740       32.15337
O        -11.46141       80.29306       31.90087
H        -12.68393       81.37456       29.80035
H         -9.70794       81.91036       29.51752
H         -9.42439       80.51537       31.60485
H        -11.29628       79.34252       31.66881
H         -9.44579       82.96464       31.79782
H        -11.24277       82.95736       32.01742
H        -10.17872       82.16789       33.23814
N         -9.13253       79.38643       29.07402
C         -8.84606       78.01000       28.68404
C         -9.23638       77.09935       29.83458
O         -8.79078       77.32545       30.95180
C         -7.32656       77.84717       28.33939
C         -7.02722       78.60924       27.01841
C         -6.92548       76.35918       28.21076
C         -5.55169       78.62153       26.61290
H         -8.33688       79.97896       29.35957
H         -9.41139       77.73293       27.76567
H         -6.71986       78.27673       29.16822
H         -7.34593       79.66796       27.12233
H         -7.61519       78.15535       26.18914
H         -5.84126       76.24900       28.01229
H         -7.09860       75.82148       29.16584
H         -7.50122       75.85728       27.40515
H         -5.17033       77.60064       26.41084
H         -5.43708       79.20346       25.67379
H         -4.93884       79.09893       27.40537
N         -9.99851       75.99529       29.60330
C        -10.32487       75.00591       30.62460
C         -9.56312       73.72055       30.33857
O         -8.81890       73.67201       29.36790
C        -11.84714       74.76037       30.64517
C        -12.61994       75.99679       31.00995
O        -12.57151       76.99130       30.30450
O        -13.38995       76.00287       32.11459
H        -10.30345       75.80151       28.63924
H        -10.00216       75.34948       31.63208
H        -12.08515       73.98015       31.39751
H        -12.18708       74.39731       29.65010
N         -9.65944       72.64389       31.17237
C         -8.91060       71.41459       30.94266
C         -9.29356       70.73177       29.62938
O         -8.37803       70.41032       28.88716
C         -9.04035       70.40626       32.10381
C         -8.05962       69.27447       31.87731
C         -8.50688       67.98845       31.53199
C         -6.67567       69.51892       31.96483
C         -7.58291       66.97140       31.26479
C         -5.75817       68.49870       31.70633
C         -6.21084       67.22661       31.35152
H        -10.25242       72.71393       32.01340
H         -7.83511       71.69932       30.89999
H        -10.07951       70.02997       32.15922
H         -8.81019       70.88567       33.07978
H         -9.56556       67.78001       31.44347
H         -6.30651       70.50233       32.22928
H         -7.92953       65.98642       30.98147
H         -4.69615       68.69832       31.77338
H         -5.49737       66.44062       31.14059
N        -10.58618       70.45339       29.25133
C        -10.92424       69.76736       28.00846
C        -10.68008       70.61317       26.75718
O        -10.99016       70.12766       25.67801
C        -12.40084       69.39753       28.20290
C        -12.91502       70.56357       29.01109
C        -11.78267       70.76570       30.01368
H        -10.35371       68.81846       27.89828
H        -12.96413       69.15704       27.27591
H        -12.45086       68.50796       28.87375
H        -12.95295       71.44513       28.33200
H        -13.91623       70.42641       29.47302
H        -11.83697       71.81112       30.36496
H        -11.86844       70.05465       30.86131
N        -10.09431       71.84785       26.80576
C         -9.79529       72.65828       25.62837
C         -8.29471       72.82529       25.41660
O         -7.91922       73.38142       24.39376
C        -10.37295       74.06905       25.81780
C        -11.85697       74.08078       26.17999
C        -12.32321       75.46013       26.53607
O        -13.56989       75.61017       26.98869
O        -11.58718       76.43238       26.46874
H         -9.83875       72.24794       27.71115
H        -10.22225       72.18126       24.71909
H        -10.20324       74.68196       24.90475
H         -9.82014       74.53985       26.66215
H        -12.02137       73.45533       27.08226
H        -12.46825       73.67140       25.34789
N         -7.38133       72.42667       26.34984
C         -5.95445       72.62702       26.21659
H         -5.60273       73.27774       27.04587
H         -5.43965       71.64684       26.28847
H         -5.67983       73.10614       25.25480
H         -7.68856       71.99119       27.22344
Ca       -14.29222       77.57112       27.76537
O        -13.22720       80.66293       26.91995
H        -12.57217       81.39436       26.79391
H        -14.06826       81.01936       26.54010
O        -11.15128       79.21110       25.45647
H        -11.02476       80.04336       24.93576
H        -10.79748       78.49578       24.87105

Ca 1.0



