%chk=holoCaM-CaMKII.loop3.water2.frame226.chk
%nprocshared=20
%mem=10GB
%nosave
#b3lyp/svp scf=(tight,noincore,xqc) Test 
#IOP(5/87=12) Density=Current Pop=(MK,readradii) iop(6/33=2) iop(6/42=6)

holoCaM-CaMKII.loop3.water2.frame226 

   0  1 
C         52.15591       39.23110       39.91500
C         53.39136       39.30253       39.07016
O         53.37474       38.84196       37.93980
H         51.33277       38.71918       39.37307
H         52.37546       38.66854       40.84732
H         51.83051       40.25941       40.17803
N         54.52004       39.86174       39.57918
C         55.77340       39.97597       38.85210
C         56.79191       39.07047       39.51196
O         57.76544       39.53001       40.09291
C         56.18757       41.45736       38.79836
C         57.52864       41.62965       38.15608
O         58.52711       42.21770       38.83885
O         57.73078       41.20131       37.03537
H         54.49900       40.21061       40.55035
H         55.67497       39.62457       37.79901
H         56.22528       41.88408       39.82257
H         55.43156       42.01990       38.20976
N         56.60857       37.72745       39.42966
C         57.53946       36.75353       39.97967
C         58.88614       36.85390       39.27903
O         59.89460       36.96323       39.96258
C         56.96635       35.32157       39.87440
C         55.64650       35.19103       40.66553
C         55.13741       33.74462       40.70549
C         53.83058       33.59565       41.50968
N         52.69523       34.26570       40.86952
H         55.77136       37.39058       38.93070
H         57.68069       36.94942       41.06711
H         57.71150       34.62077       40.31226
H         56.80004       35.03859       38.81159
H         54.87779       35.83879       40.20293
H         55.81141       35.53035       41.71180
H         55.91424       33.12127       41.20006
H         54.98348       33.35827       39.67494
H         53.96980       33.99020       42.54117
H         53.59776       32.51112       41.59048
H         52.83126       35.30048       40.84290
H         52.56128       33.89717       39.89986
H         51.83020       34.06951       41.42327
N         58.97654       36.84581       37.91409
C         60.25467       36.89350       37.19477
C         61.10686       38.13313       37.48776
O         62.26670       38.13422       37.09838
C         60.03472       36.72543       35.67457
C         59.22087       37.83644       35.07279
O         58.03346       37.56217       34.50089
O         59.63670       38.98339       35.08338
H         58.10213       36.76541       37.37215
H         60.84415       36.01528       37.53901
H         59.50601       35.76287       35.50157
H         61.01194       36.67281       35.14761
N         60.62925       39.20315       38.18410
C         61.46339       40.31281       38.61444
C         62.04456       41.11543       37.47548
O         63.25899       41.23540       37.40029
H         59.64563       39.22068       38.47690
H         62.27731       39.92163       39.26337
H         60.85234       41.00436       39.23283
N         61.22356       41.74430       36.58848
C         61.70285       42.65342       35.54136
C         61.18461       44.07932       35.74416
O         61.65121       44.96958       35.04632
C         61.33474       42.12542       34.12826
C         59.85076       42.32161       33.74983
N         59.53577       41.71637       32.46395
O         59.02106       41.83738       34.76122
H         60.21910       41.58152       36.70488
H         62.81240       42.69745       35.59578
H         61.62311       41.05360       34.05906
H         61.93065       42.68575       33.37496
H         60.19611       42.09878       31.74819
H         58.58745       42.05459       32.18943
N         60.18962       44.36302       36.63998
C         59.62569       45.68207       36.86033
C         58.19788       45.79257       36.34774
O         57.59278       46.83010       36.56603
H         59.75896       43.61115       37.18635
H         60.21901       46.47137       36.34929
H         59.65676       45.89076       37.95117
N         57.63755       44.81748       35.56516
C         56.37758       44.98795       34.83933
C         55.48735       43.75290       34.94220
O         55.89352       42.75175       35.50581
C         56.74528       45.24200       33.36159
C         57.61896       46.47006       33.25616
C         57.05929       47.75199       33.37576
C         59.00925       46.33885       33.09253
C         57.87694       48.88552       33.32950
C         59.82637       47.47215       33.06623
C         59.26202       48.75050       33.18393
O         60.03899       49.85230       33.16645
H         58.19445       43.99283       35.33070
H         55.81322       45.85941       35.23667
H         55.85646       45.35470       32.70422
H         57.31078       44.35193       33.00665
H         55.99074       47.87184       33.50433
H         59.46472       45.35897       33.01898
H         57.43442       49.86964       33.41871
H         60.89786       47.35453       32.96354
H         61.00236       49.80137       33.08734
N         54.22457       43.78581       34.41966
C         53.28686       42.65984       34.43362
C         52.72397       42.46750       33.02563
O         52.23044       43.42620       32.45102
C         52.13633       42.93766       35.44932
C         52.71783       43.05753       36.88492
C         51.07624       41.81227       35.39347
C         51.69059       43.47107       37.94026
H         53.89120       44.67757       34.02552
H         53.78507       41.72171       34.76751
H         51.64563       43.89737       35.17388
H         53.50957       43.83492       36.90053
H         53.17691       42.08957       37.18589
H         50.22798       42.01644       36.07484
H         50.63242       41.73310       34.38073
H         51.52769       40.83230       35.66091
H         52.19654       43.56951       38.92391
H         51.24344       44.45148       37.67176
H         50.88800       42.71640       38.05628
N         52.69088       41.22837       32.45072
C         52.09488       40.95463       31.13987
C         50.80914       40.14730       31.28868
O         50.40472       39.86897       32.40260
C         53.11614       40.22439       30.25399
O         53.41694       38.96762       30.79414
H         53.05816       40.43321       32.98730
H         51.82059       41.90328       30.63106
H         54.03239       40.85001       30.18536
H         52.71188       40.08760       29.22898
H         54.22109       38.64244       30.31227
N         50.09634       39.76464       30.18863
C         48.83055       39.03129       30.24869
C         48.97372       37.68000       30.92909
O         48.24114       37.41399       31.87200
C         48.27693       38.82694       28.83262
H         50.45786       40.03171       29.26178
H         48.08467       39.64127       30.80628
H         47.29947       38.30002       28.87488
H         48.12081       39.81145       28.34248
H         48.97958       38.23015       28.21257
N         49.89818       36.77583       30.49980
C         50.08199       35.45172       31.09560
C         50.34344       35.54577       32.58678
O         49.70733       34.83842       33.35494
C         51.25597       34.73424       30.41827
H         50.51521       37.05456       29.72046
H         49.17120       34.83488       30.92658
H         51.05859       34.62754       29.33034
H         52.20028       35.30465       30.55508
H         51.38578       33.71851       30.84997
N         51.24414       36.44778       33.05768
C         51.55722       36.65214       34.47210
C         50.28445       36.91337       35.26556
O         50.05216       36.21773       36.24474
C         52.57955       37.81001       34.60704
C         53.92979       37.40893       33.96869
C         54.92583       38.52690       33.82637
O         55.34304       38.81621       32.71829
O         55.44495       39.16340       34.88499
H         51.69424       37.05610       32.35797
H         52.02975       35.73513       34.89158
H         52.75292       38.05166       35.67345
H         52.15387       38.70759       34.11635
H         53.76486       37.01437       32.94706
H         54.38380       36.59030       34.56664
N         49.38111       37.84609       34.85776
C         48.11085       38.08259       35.51442
H         47.28620       37.84474       34.80785
H         47.97780       37.45875       36.42281
H         48.03599       39.15132       35.80159
H         49.57437       38.38590       34.01017
Ca        57.22851       40.47675       34.36542
O         58.18030       38.86456       31.82880
H         57.91356       39.43106       31.06259
H         57.98740       37.93961       31.53320
O         55.98575       41.72425       31.89350
H         56.13818       42.68201       31.69905
H         56.25380       41.26011       31.06141

Ca 1.0



