%chk=holoCaM-CaMKII.loop2.water2.frame68.chk
%nprocshared=20
%mem=10GB
%nosave
#b3lyp/svp scf=(tight,noincore,xqc) Test 
#IOP(5/87=12) Density=Current Pop=(MK,readradii) iop(6/33=2) iop(6/42=6)

holoCaM-CaMKII.loop2.water2.frame68 

   -2  1 
C         76.09445       76.61787       61.39188
C         74.92850       76.98672       60.51901
O         74.78612       76.43465       59.43817
H         76.72659       77.51132       61.57698
H         75.72161       76.23289       62.36563
H         76.71516       75.82857       60.91680
N         74.02853       77.90991       60.95198
C         72.82959       78.27676       60.20583
C         73.15356       78.97836       58.89662
O         73.90411       79.94421       58.89679
C         71.92380       79.17386       61.05894
C         70.65994       79.53111       60.32161
O         70.42633       80.71044       60.11479
O         69.78975       78.60473       59.84097
H         74.18337       78.33233       61.88167
H         72.24393       77.36012       60.00981
H         72.47558       80.10429       61.32792
H         71.65539       78.66061       62.00218
N         72.52921       78.57838       57.75190
C         72.69364       79.21543       56.45406
C         71.39214       79.82674       55.92616
O         71.44624       80.42235       54.85903
C         73.20274       78.16331       55.46200
H         71.87890       77.78858       57.80692
H         73.44271       80.03383       56.51893
H         74.16165       77.73239       55.81971
H         72.46149       77.33892       55.36267
H         73.36975       78.61195       54.46002
N         70.19199       79.71054       56.57795
C         68.93183       80.23024       56.04365
C         68.27270       81.23474       56.99276
O         68.02869       82.35207       56.55951
C         68.02588       79.06139       55.58791
C         67.71231       78.00671       56.61107
O         68.10984       76.86431       56.44462
O         66.93010       78.28343       57.66538
H         70.14477       79.18702       57.45871
H         69.11628       80.79190       55.10113
H         68.56465       78.55720       54.75395
H         67.07462       79.45810       55.17351
N         67.97747       80.93578       58.28984
C         67.39269       81.88558       59.23421
C         66.06845       81.41012       59.80262
O         65.19263       82.24205       59.99431
H         68.23108       80.01092       58.64571
H         67.23011       82.88453       58.77177
H         68.10602       82.04320       60.06973
N         65.85588       80.10301       60.13442
C         64.58860       79.59473       60.66012
C         64.71376       79.13938       62.11105
O         63.76344       78.57453       62.63389
C         64.02358       78.48891       59.73015
C         64.84029       77.22191       59.60487
N         64.39462       76.21601       58.81789
O         65.89548       77.08922       60.20323
H         66.62168       79.43001       60.00567
H         63.81806       80.39643       60.66657
H         63.89564       78.91989       58.71281
H         63.01521       78.20063       60.10024
H         63.50830       76.30392       58.30010
H         64.93428       75.34399       58.72713
N         65.82330       79.42865       62.85114
C         65.95741       79.10709       64.26574
C         66.14887       77.63343       64.57525
O         66.27915       77.32099       65.75337
H         66.57685       79.98767       62.43102
H         65.07423       79.50334       64.81183
H         66.85633       79.63105       64.65683
N         66.19490       76.67249       63.61019
C         66.40358       75.24973       63.87583
C         67.63678       74.74680       63.13566
O         68.26253       75.53640       62.43426
C         65.13696       74.45169       63.47488
C         63.91126       74.87758       64.30117
O         64.88214       74.55579       62.09415
H         66.07895       76.95222       62.62845
H         66.58037       75.07356       64.96087
H         65.29860       73.37809       63.70339
H         64.45220       75.43329       61.92223
H         63.03361       74.25856       64.02029
H         64.11240       74.73420       65.38453
H         63.66061       75.94558       64.12631
N         68.04391       73.44629       63.21932
C         69.21276       72.92790       62.51304
C         68.75694       72.04302       61.36849
O         68.18445       70.98294       61.59063
C         70.19290       72.19363       63.47751
C         70.77439       73.19950       64.50391
C         71.32658       71.50114       62.68961
C         71.70195       72.56933       65.54546
H         67.48542       72.78040       63.77829
H         69.78264       73.76788       62.06054
H         69.62799       71.40166       64.01816
H         69.93895       73.68522       65.05128
H         71.34576       73.98631       63.96954
H         71.92685       72.24344       62.12356
H         71.99098       70.92671       63.36203
H         70.91710       70.75320       61.98195
H         72.04198       73.35343       66.25400
H         71.16704       71.77936       66.11213
H         72.61176       72.14083       65.07813
N         68.99808       72.45237       60.09573
C         68.67908       71.69677       58.89129
C         69.72791       70.60747       58.65429
O         70.68009       70.52726       59.41125
C         68.59357       72.70734       57.72282
C         67.41800       73.63597       57.95316
O         66.30014       73.20085       57.72567
O         67.51386       74.86574       58.52877
H         69.42405       73.38145       59.96937
H         67.68402       71.21047       59.00574
H         68.43811       72.19081       56.75127
H         69.54158       73.27654       57.64593
N         69.59364       69.70074       57.63888
C         70.55553       68.61672       57.40929
C         71.94674       69.11678       57.01401
O         72.89388       68.68652       57.66345
C         70.05177       67.60394       56.35552
C         71.03804       66.45903       56.20502
C         71.73024       66.26904       54.99584
C         71.29640       65.58959       57.28266
C         72.66682       65.23668       54.87189
C         72.23088       64.55744       57.15235
C         72.91731       64.38252       55.94891
H         68.75611       69.75466       57.04111
H         70.64132       68.04280       58.35901
H         69.90526       68.11539       55.38620
H         69.06584       67.19188       56.65999
H         71.55815       66.92784       54.15428
H         70.77923       65.71072       58.22582
H         73.20344       65.10154       53.94175
H         72.42648       63.89554       57.98663
H         73.64456       63.58628       55.85199
N         72.19292       69.99400       55.98327
C         73.53146       70.41673       55.57096
C         74.22346       71.32715       56.58357
O         75.30346       71.81539       56.28799
C         73.27818       71.12245       54.23267
C         71.92431       71.75014       54.45674
C         71.17503       70.62182       55.15726
H         74.19932       69.54864       55.37532
H         74.08273       71.80787       53.89017
H         73.13524       70.34183       53.45008
H         72.06267       72.58875       55.17517
H         71.41667       72.14191       53.54993
H         70.35068       71.08210       55.73192
H         70.79415       69.88137       54.42510
N         73.68300       71.56117       57.80894
C         74.26689       72.40372       58.83432
C         74.77256       71.52067       59.95933
O         75.92146       71.67205       60.35115
C         73.18986       73.38291       59.31871
C         72.61863       74.18830       58.13937
C         71.49174       75.06376       58.55702
O         70.86080       75.66679       57.70520
O         71.13673       75.15659       59.85241
H         72.78799       71.13809       58.05696
H         75.12192       72.99740       58.43958
H         73.61166       74.06430       60.08929
H         72.35700       72.80617       59.77959
H         72.20016       73.49208       57.38442
H         73.41041       74.80244       57.65911
N         73.99417       70.52474       60.47467
C         74.44579       69.58594       61.47959
H         75.46627       69.81657       61.84752
H         73.74497       69.59682       62.33769
H         74.45227       68.56407       61.04234
H         73.04575       70.37726       60.10943
Ca        68.86332       76.53514       59.39742
O         68.58798       78.47172       62.37001
H         68.87729       79.40524       62.52786
H         69.32346       77.92178       62.73388
O         71.67573       76.18251       62.51900
H         71.91778       76.57468       63.39438
H         70.74688       75.86983       62.64132

Ca 1.0



