%chk=holoCaM.loop3.water2.frame35.chk
%nprocshared=20
%mem=10GB
%nosave
#b3lyp/svp scf=(tight,noincore,xqc) Test 
#IOP(5/87=12) Density=Current Pop=(MK,readradii) iop(6/33=2) iop(6/42=6)

holoCaM.loop3.water2.frame35 

   0  1 
C         84.03907       88.68521       23.23598
C         83.15276       89.45148       24.16561
O         83.00931       89.02277       25.30267
H         85.06265       88.63599       23.66269
H         83.64245       87.65274       23.12889
H         84.08338       89.15748       22.23401
N         82.50719       90.58511       23.75477
C         81.60183       91.31760       24.62607
C         80.19204       91.23900       24.05058
O         79.95131       91.76848       22.97393
C         82.06638       92.78278       24.82190
C         81.27090       93.44461       25.91797
O         80.42012       92.68352       26.62787
O         81.40932       94.62801       26.17330
H         82.63536       90.91822       22.78691
H         81.60878       90.83604       25.62520
H         81.94912       93.33712       23.86428
H         83.13755       92.81454       25.11394
N         79.22847       90.51902       24.69488
C         77.91258       90.24955       24.11789
C         76.93892       91.41679       24.19858
O         75.91431       91.31768       23.53635
C         77.29338       88.99759       24.77855
C         78.07574       87.73126       24.38866
C         77.58634       86.49983       25.15628
C         78.28010       85.23104       24.63920
N         77.90915       84.06472       25.43877
H         79.49439       90.02821       25.56097
H         78.04813       90.01997       23.03573
H         76.24463       88.85190       24.43674
H         77.28105       89.14169       25.88193
H         79.16011       87.85653       24.59770
H         77.94607       87.57105       23.29474
H         76.48732       86.38085       25.03729
H         77.81703       86.64420       26.23486
H         79.38488       85.35734       24.67695
H         77.98378       85.06312       23.57884
H         76.87138       83.93668       25.43915
H         78.35746       83.21340       25.02914
H         78.25162       84.18604       26.41975
N         77.14670       92.53058       24.96727
C         76.21348       93.66299       24.96695
C         76.88716       94.94703       24.47399
O         76.20514       95.95699       24.36896
C         75.48441       93.78889       26.33388
C         76.28609       94.41233       27.43615
O         76.58099       95.58900       27.36690
O         76.69741       93.70720       28.50010
H         77.98069       92.58005       25.56668
H         75.39467       93.46105       24.24327
H         75.13696       92.77501       26.63076
H         74.57986       94.42464       26.21515
N         78.20290       94.97000       24.08829
C         78.84301       96.12100       23.46905
C         79.07897       97.31279       24.37296
O         79.55575       98.31506       23.85815
H         78.77044       94.11365       24.13405
H         78.22953       96.43529       22.59679
H         79.84008       95.81407       23.08380
N         78.79029       97.30964       25.70695
C         78.97541       98.50076       26.53564
C         80.44215       98.89510       26.69648
O         80.69427       99.98845       27.18293
C         78.27171       98.36080       27.90604
C         78.91688       97.38031       28.86141
N         79.27933       97.77987       30.10285
O         79.08851       96.21702       28.53135
H         78.38842       96.46485       26.12185
H         78.44569       99.32710       26.00930
H         77.21935       98.05454       27.72829
H         78.23469       99.36141       28.38878
H         79.13068       98.75093       30.41399
H         79.69498       97.11301       30.76728
N         81.45755       98.05273       26.33536
C         82.86951       98.39328       26.42603
C         83.61293       97.58509       27.47486
O         84.81348       97.78243       27.59709
H         81.23612       97.11461       25.98079
H         83.00656       99.46444       26.69057
H         83.32954       98.23536       25.42762
N         82.96701       96.73860       28.33028
C         83.60210       96.13728       29.50208
C         83.29635       94.65609       29.60942
O         82.13957       94.27925       29.48027
C         83.04116       96.84503       30.74666
C         83.42971       98.30289       30.74388
C         82.55011       99.27844       30.24741
C         84.69315       98.69360       31.21457
C         82.92741      100.62329       30.22279
C         85.06514      100.04085       31.20092
C         84.18274      101.01070       30.70251
O         84.53035      102.31291       30.67732
H         81.94663       96.62176       28.24526
H         84.70439       96.28966       29.50941
H         83.41204       96.37300       31.68332
H         81.93762       96.73970       30.75191
H         81.58175       98.99788       29.86142
H         85.38626       97.95468       31.59759
H         82.24355      101.36391       29.82755
H         86.03958      100.32848       31.57465
H         85.38785      102.62239       31.00222
N         84.27885       93.77057       29.95472
C         84.02487       92.35778       30.22555
C         84.29268       92.08519       31.70073
O         85.43571       92.15914       32.13149
C         84.88700       91.45745       29.29239
C         84.47693       91.69656       27.81562
C         84.75210       89.96719       29.67282
C         85.35483       90.95869       26.80336
H         85.23872       94.12184       30.09608
H         82.96115       92.11752       30.03076
H         85.95493       91.74431       29.42271
H         84.56229       92.77954       27.58325
H         83.41657       91.39491       27.66534
H         85.40939       89.32924       29.05036
H         85.08086       89.79634       30.71736
H         83.70241       89.62581       29.56745
H         85.27040       89.85917       26.91116
H         85.02589       91.21703       25.77546
H         86.41598       91.26298       26.92250
N         83.25801       91.77916       32.53811
C         83.43137       91.46646       33.95699
C         84.03043       90.07654       34.14781
O         84.25663       89.38072       33.17179
C         82.07371       91.56276       34.68497
O         81.15908       90.62138       34.18778
H         82.30173       91.80693       32.15354
H         84.09523       92.23119       34.41728
H         81.67330       92.59926       34.58471
H         82.19404       91.39004       35.77459
H         80.51378       91.10615       33.60996
N         84.29835       89.59921       35.39712
C         84.79163       88.24601       35.65019
C         83.76135       87.20740       35.23873
O         84.08497       86.31802       34.46425
C         85.11457       88.06536       37.13850
H         84.13890       90.22306       36.20275
H         85.74116       88.08453       35.09150
H         85.89222       88.79563       37.44675
H         84.21283       88.21857       37.76860
H         85.50745       87.04134       37.32042
N         82.48815       87.27637       35.72439
C         81.43076       86.31890       35.40505
C         81.23921       86.18491       33.91044
O         81.23454       85.06986       33.40787
C         80.11108       86.76439       36.04924
H         82.25553       88.06834       36.34397
H         81.69136       85.32182       35.82505
H         79.30612       86.03187       35.82491
H         80.22806       86.82791       37.15188
H         79.80177       87.76173       35.66742
N         81.11662       87.29563       33.13589
C         80.95032       87.26412       31.68872
C         82.04560       86.43697       31.03554
O         81.72711       85.47596       30.34832
C         80.92446       88.71108       31.15460
C         80.71800       88.77679       29.63913
C         80.59030       90.18633       29.14559
O         80.44434       90.37945       27.95371
O         80.61217       91.23675       29.99020
H         81.17116       88.20995       33.60565
H         79.96858       86.79414       31.45383
H         81.87236       89.23252       31.41735
H         80.08432       89.24412       31.65344
H         79.79090       88.23068       29.36378
H         81.58233       88.30222       29.12686
N         83.35734       86.73059       31.23022
C         84.41928       85.93433       30.65729
H         85.40534       86.33814       30.97063
H         84.33833       84.88478       31.01406
H         84.35623       85.95693       29.54921
H         83.61174       87.52873       31.82128
Ca        78.74241       92.96482       28.06685
O         77.67943       92.34711       31.17309
H         76.81093       92.82023       31.12387
H         77.56946       91.56139       30.58071
O         79.97939       94.31676       31.37579
H         79.31363       94.83690       31.89138
H         80.82792       94.43768       31.87171

Ca 1.0



