%chk=holoCaM.loop1.water2.frame143.chk
%nprocshared=20
%mem=10GB
%nosave
#b3lyp/svp scf=(tight,noincore,xqc) Test 
#IOP(5/87=12) Density=Current Pop=(MK,readradii) iop(6/33=2) iop(6/42=6)

holoCaM.loop1.water2.frame143 

   0  1 
C          2.95623       75.93026        4.67567
C          2.90295       74.46132        4.39638
O          1.86496       73.98485        3.95735
H          2.76587       76.48625        3.73326
H          2.17685       76.19221        5.42038
H          3.94896       76.23074        5.07054
N          3.99693       73.67390        4.59702
C          3.98127       72.25804        4.27478
C          3.05360       71.51721        5.21974
O          3.18813       71.72137        6.41968
C          5.38756       71.63358        4.36784
C          5.40721       70.34370        3.59951
O          4.36285       70.04223        2.80099
O          6.40276       69.64039        3.59525
H          4.87239       74.10376        4.93372
H          3.64232       72.19234        3.21818
H          5.67624       71.48491        5.43260
H          6.14596       72.28798        3.88936
N          2.09568       70.65079        4.76836
C          1.07958       70.09729        5.65645
C          1.15601       68.58175        5.85779
O          0.41932       68.09719        6.70553
C         -0.29645       70.55542        5.11573
C         -1.42164       70.67389        6.16215
C         -1.13753       71.69730        7.29065
C         -0.79958       73.11256        6.77364
N         -0.56356       74.03846        7.87983
H          2.03137       70.44649        3.76341
H          1.23652       70.53217        6.65891
H         -0.59909       69.89142        4.27611
H         -0.19244       71.56112        4.65934
H         -1.63650       69.68238        6.61138
H         -2.33775       71.00406        5.62479
H         -0.30850       71.34056        7.93376
H         -2.04203       71.75555        7.93342
H         -1.63667       73.49069        6.14597
H          0.12296       73.08908        6.15560
H          0.24705       73.70913        8.45344
H         -0.33493       74.98232        7.49068
H         -1.41702       74.11392        8.47826
N          2.00023       67.76598        5.14743
C          2.09599       66.31735        5.39096
C          3.52472       65.84010        5.69412
O          3.70398       64.64904        5.90767
C          1.41618       65.52414        4.25216
C          2.05905       65.61538        2.90193
O          3.20215       66.29284        2.72247
O          1.54706       65.04006        1.95512
H          2.57057       68.17296        4.39263
H          1.50341       66.04872        6.29242
H          0.36728       65.88439        4.16770
H          1.38048       64.44845        4.53274
N          4.57178       66.70785        5.80985
C          5.90295       66.31688        6.26002
C          6.70916       65.50766        5.26268
O          7.21942       64.45379        5.61252
H          4.41191       67.71640        5.67680
H          5.83273       65.79216        7.23760
H          6.48845       67.24735        6.43065
N          6.93880       66.01348        4.02336
C          7.91337       65.48447        3.05737
C          8.93877       66.56852        2.68881
O          9.77206       66.31541        1.82990
C          7.22658       64.87256        1.79500
C          6.30042       65.79219        1.06184
O          5.64298       65.40278        0.11061
O          6.10431       67.00392        1.57005
H          6.43844       66.88322        3.80027
H          8.48772       64.64371        3.50329
H          6.62152       64.00147        2.12530
H          8.00276       64.50340        1.09033
N          8.97247       67.78176        3.32635
C          9.94875       68.82302        3.04097
C          9.74908       69.53735        1.71821
O         10.54557       70.42400        1.43780
H          8.33373       67.97350        4.10839
H         10.97144       68.39190        3.09815
H          9.87026       69.60486        3.82868
N          8.72836       69.24217        0.86112
C          8.52068       69.92927       -0.41209
C          7.14726       70.59748       -0.45541
O          6.36802       70.44438        0.47714
C          8.73064       68.93093       -1.57874
C         10.18013       68.43680       -1.62906
O          7.88306       67.82516       -1.42492
H          8.06588       68.49498        1.10412
H          9.26002       70.75180       -0.53699
H          8.50998       69.45299       -2.53768
H          7.80721       67.38807       -2.31284
H         10.44856       67.90058       -0.69407
H         10.30696       67.73614       -2.48151
H         10.87335       69.29224       -1.77089
N          6.81756       71.41810       -1.49465
C          5.57412       72.18358       -1.59526
C          4.85750       71.85360       -2.91006
O          5.47562       71.89308       -3.96594
C          5.89825       73.70310       -1.43701
C          6.47506       74.03289       -0.02385
C          4.68463       74.60527       -1.73031
C          5.50440       73.83330        1.15504
H          7.52046       71.56678       -2.23663
H          4.88266       71.92892       -0.77480
H          6.67834       73.96660       -2.18539
H          6.79409       75.09772       -0.00894
H          7.38117       73.41843        0.16225
H          4.34298       74.47505       -2.77691
H          3.83612       74.37677       -1.05745
H          4.96346       75.67371       -1.60345
H          4.61195       74.48603        1.06382
H          5.17609       72.78087        1.24817
H          6.01290       74.10634        2.10340
N          3.51754       71.58207       -2.90282
C          2.69195       71.26625       -4.07548
C          1.80581       72.44735       -4.44241
O          1.94832       73.50210       -3.85163
C          1.80505       70.01847       -3.78281
C          2.62227       68.73714       -3.66973
O          0.99471       70.22504       -2.64722
H          3.03050       71.66061       -2.00068
H          3.32311       71.06534       -4.96959
H          1.12422       69.81572       -4.63062
H          1.51481       69.98546       -1.83600
H          3.17637       68.55156       -4.61446
H          3.33244       68.83572       -2.84130
H          1.94768       67.87605       -3.47725
N          0.87366       72.34645       -5.43250
C         -0.02055       73.43246       -5.83255
C         -0.87683       73.92836       -4.66473
O         -0.80417       75.10799       -4.35292
C         -0.92251       72.99830       -7.02160
C         -0.10470       72.71263       -8.28932
O         -1.66503       71.85487       -6.67961
H          0.79670       71.45153       -5.93431
H          0.59690       74.29072       -6.18433
H         -1.61098       73.84644       -7.24728
H         -2.46902       71.84180       -7.26114
H          0.46488       73.61703       -8.58977
H          0.60724       71.87466       -8.14145
H         -0.78803       72.43747       -9.12049
N         -1.71133       73.09278       -3.97906
C         -2.56478       73.53232       -2.87031
C         -1.77354       74.17370       -1.74896
O         -2.13328       75.26948       -1.33924
C         -3.41535       72.35658       -2.32470
C         -4.71082       72.21666       -3.14223
C         -5.62040       71.08783       -2.63503
C         -7.08292       71.26613       -3.09285
N         -7.23194       71.34540       -4.54613
H         -1.73464       72.09895       -4.24938
H         -3.26689       74.32027       -3.22508
H         -3.75059       72.59460       -1.29009
H         -2.81839       71.41830       -2.27233
H         -4.49504       72.06857       -4.22244
H         -5.25601       73.17888       -3.01652
H         -5.64896       71.10013       -1.52361
H         -5.20787       70.10735       -2.95900
H         -7.48889       72.19861       -2.63867
H         -7.68486       70.41535       -2.70412
H         -6.73961       72.18795       -4.92071
H         -6.86346       70.47887       -4.99809
H         -8.24860       71.44544       -4.77162
N         -0.68388       73.56979       -1.21254
C          0.10067       74.16027       -0.12499
C          0.54770       75.56812       -0.49925
O          0.25278       76.49823        0.23794
C          1.29750       73.24907        0.20871
C          0.81551       71.89442        0.77570
C          1.91178       70.88988        0.95947
O          3.06567       71.15402        0.67189
O          1.60579       69.65900        1.41118
H         -0.38975       72.67293       -1.62833
H         -0.52737       74.24031        0.79087
H          1.95641       73.73399        0.96314
H          1.88249       73.09525       -0.71911
H          0.08456       71.42073        0.09272
H          0.31557       72.06837        1.75318
N          1.19557       75.79972       -1.67044
C          1.56211       77.11255       -2.15958
H          2.65455       77.14563       -2.34925
H          1.03117       77.30145       -3.11834
H          1.29307       77.92069       -1.44901
H          1.39999       75.00489       -2.27291
Ca         4.36931       68.32550        1.43975
O          5.17016       68.23574       -1.57370
H          5.61011       68.16354       -0.69632
H          5.10473       67.30303       -1.89757
O          2.38711       67.13381       -0.77253
H          1.87545       66.86491        0.03002
H          2.32321       66.35564       -1.38136

Ca 1.0



