%chk=holoCaM.loop4.water3.frame424.chk
%nprocshared=20
%mem=10GB
%nosave
#b3lyp/svp scf=(tight,noincore,xqc) Test 
#IOP(5/87=12) Density=Current Pop=(MK,readradii) iop(6/33=2) iop(6/42=6)

holoCaM.loop4.water3.frame424 

   -3  1 
C          5.81404       76.26782       69.99132
C          5.03403       75.61063       71.08920
O          3.82357       75.77056       71.11249
H          6.89614       76.03437       70.06399
H          5.43932       75.89867       69.01246
H          5.67580       77.36781       70.04009
N          5.65840       74.85194       72.03667
C          4.93588       74.13682       73.08448
C          5.89493       73.50329       74.08346
O          6.84688       72.84356       73.69031
C          4.01660       73.05631       72.48198
C          3.29365       72.31911       73.56758
O          3.39267       71.10642       73.65786
O          2.57292       73.00485       74.47405
H          6.68686       74.77952       72.00329
H          4.29511       74.86417       73.63365
H          4.60668       72.34273       71.86762
H          3.24959       73.52453       71.83388
N          5.63686       73.62791       75.41485
C          6.49013       73.12339       76.48125
C          5.79982       71.97585       77.21851
O          6.43706       70.95182       77.42172
C          6.83312       74.30759       77.44270
C          7.55805       75.43981       76.66102
C          7.69243       73.83014       78.63235
C          7.74632       76.72988       77.46419
H          4.78237       74.13069       75.69822
H          7.45053       72.72985       76.07640
H          5.87760       74.71284       77.84583
H          6.95606       75.72185       75.77321
H          8.54581       75.07814       76.29985
H          7.89578       74.65674       79.34180
H          7.16353       73.04746       79.21446
H          8.66006       73.41746       78.27503
H          8.22695       77.49630       76.81921
H          6.76026       77.12133       77.79420
H          8.39871       76.57847       78.34639
N          4.52174       72.08994       77.68287
C          3.89273       71.12096       78.58653
C          2.66633       70.39152       78.00833
O          2.08625       69.59634       78.73552
C          3.58128       71.84314       79.91911
C          2.81007       73.11115       79.72127
O          1.73574       73.07883       79.16348
O          3.32364       74.29480       80.10843
H          3.99086       72.94000       77.44523
H          4.60003       70.30279       78.84332
H          4.54040       72.11464       80.40955
H          3.02645       71.16805       80.60540
N          2.26060       70.52318       76.71103
C          1.20066       69.70308       76.11001
C         -0.22287       69.99598       76.57714
O         -1.13120       69.30373       76.14029
H          2.79066       71.14804       76.09647
H          1.43455       68.63181       76.29595
H          1.20957       69.85631       75.00964
N         -0.49597       71.00542       77.44356
C         -1.82560       71.35886       77.96239
C         -2.83406       71.90529       76.93972
O         -3.93114       72.25252       77.35741
C         -1.64574       72.38465       79.10435
C         -0.88903       73.62922       78.70749
O         -0.47876       73.84085       77.43517
O         -0.57760       74.42592       79.57535
H          0.30933       71.53032       77.79797
H         -2.28051       70.45226       78.41993
H         -1.04901       71.88362       79.89860
H         -2.62577       72.66000       79.55053
N         -2.57539       71.99808       75.60582
C         -3.54332       72.50199       74.63777
C         -3.78179       74.00628       74.68807
O         -4.58738       74.47169       73.89468
H         -1.69179       71.63698       75.24132
H         -4.50460       71.95696       74.76426
H         -3.16909       72.28068       73.61474
N         -3.11724       74.83311       75.54909
C         -3.28610       76.28757       75.58101
C         -1.96392       76.99305       75.28372
O         -0.95895       76.32859       75.07231
C         -3.87529       76.73525       76.94100
C         -2.96668       76.42778       78.14265
C         -3.48330       76.98637       79.44684
N         -2.76907       76.81224       80.58278
O         -4.53664       77.60532       79.48849
H         -2.44343       74.42529       76.20164
H         -4.00797       76.61029       74.79933
H         -4.86131       76.24421       77.09205
H         -4.05389       77.83049       76.90543
H         -1.96850       76.87159       77.96169
H         -2.86899       75.33142       78.25041
H         -1.87571       76.30264       80.57165
H         -3.10447       77.19402       81.47888
N         -1.90531       78.35751       75.24890
C         -0.69924       79.12148       74.94513
C         -0.32000       79.99398       76.13596
O         -1.14717       80.75137       76.62371
C         -0.92676       79.97586       73.66486
C          0.28315       80.87532       73.35148
C         -1.18874       79.06593       72.45343
H         -2.76638       78.89579       75.42504
H          0.15274       78.44590       74.72601
H         -1.81062       80.63520       73.81302
H          0.44734       81.60559       74.16844
H          1.20373       80.26912       73.21391
H          0.10133       81.46233       72.42621
H         -2.08668       78.43542       72.61741
H         -1.36317       79.67804       71.54280
H         -0.31521       78.40207       72.26957
N          0.96984       79.99284       76.58149
C          1.50001       80.88424       77.61146
C          2.28000       81.99492       76.92889
O          2.43747       81.95861       75.72297
C          2.39733       80.03872       78.55607
C          3.15771       80.76779       79.63345
N          2.51373       81.45062       80.60471
O          4.37829       80.70697       79.64900
H          1.65118       79.40643       76.07855
H          0.67343       81.36568       78.17785
H          3.14076       79.49677       77.92922
H          1.76495       79.29631       79.06918
H          1.48594       81.50004       80.62146
H          3.05075       81.92495       81.34533
N          2.75165       83.05513       77.63255
C          3.55518       84.12060       77.03677
C          4.89106       83.58195       76.52985
O          5.23484       83.86863       75.39083
C          3.65219       85.34012       77.99243
C          4.04944       85.03287       79.41823
C          3.06407       85.04779       80.42467
C          5.37229       84.73388       79.76642
C          3.38994       84.73510       81.74399
C          5.69926       84.42816       81.09380
C          4.70588       84.41677       82.08352
O          5.00210       84.10036       83.35973
H          2.50920       83.11009       78.62844
H          3.01833       84.53285       76.15033
H          2.61837       85.75221       78.02214
H          4.28662       86.14741       77.56648
H          2.03316       85.27900       80.18495
H          6.14849       84.73926       79.01287
H          2.61450       84.73107       82.49969
H          6.72328       84.19351       81.35300
H          5.89644       83.85394       83.63432
N          5.66492       82.74263       77.28215
C          6.94126       82.18786       76.80964
C          6.79657       81.24882       75.60555
O          7.81867       80.83510       75.07505
C          7.68233       81.41299       77.92607
C          7.98218       82.27295       79.16314
C          8.78270       81.55235       80.21377
O          9.09140       82.19250       81.35738
O          9.15486       80.40031       80.05217
H          5.33282       82.50557       78.22387
H          7.58594       83.04359       76.50642
H          8.65589       81.06108       77.51660
H          7.08378       80.52517       78.22833
H          7.03181       82.57017       79.63322
H          8.54298       83.18265       78.85811
N          5.58190       80.88587       75.10383
C          5.40421       80.07158       73.90808
C          5.09136       81.00647       72.75224
O          5.81475       80.99900       71.76628
C          4.26183       79.04861       74.10581
C          4.49102       78.06172       75.27061
C          3.29929       77.15212       75.48366
O          3.21635       76.37685       76.58251
O          2.34924       77.18601       74.72106
H          4.73353       81.25345       75.54024
H          6.33458       79.51288       73.65998
H          4.12236       78.47234       73.16444
H          3.32417       79.60788       74.31174
H          4.63918       78.64627       76.20191
H          5.39806       77.44812       75.08922
N          4.04950       81.87959       72.82908
C          3.74344       82.84288       71.79773
H          2.87870       83.46623       72.11631
H          4.61393       83.51366       71.63673
H          3.48161       82.32221       70.85481
H          3.46091       81.88774       73.66408
Ca         1.33643       75.11375       76.90231
O          0.55037       77.31503       78.39177
H          0.13523       76.82229       79.13986
H          1.51786       77.13357       78.49757
O         -0.07236       72.98892       74.13040
H          0.24368       72.05377       74.04627
H         -0.71443       73.10001       73.38673
O          1.19669       75.21541       73.07991
H          1.82708       75.84550       72.65446
H          0.30746       75.49733       72.75115

Ca 1.0



