%chk=holoCaM.loop2.water2.frame185.chk
%nprocshared=20
%mem=10GB
%nosave
#b3lyp/svp scf=(tight,noincore,xqc) Test 
#IOP(5/87=12) Density=Current Pop=(MK,readradii) iop(6/33=2) iop(6/42=6)

holoCaM.loop2.water2.frame185 

   -2  1 
C         44.73199       73.35478       82.68979
C         45.68926       73.82017       81.62659
O         45.32875       73.90758       80.46324
H         43.73310       73.11988       82.27113
H         45.14040       72.45593       83.19923
H         44.61668       74.16079       83.44924
N         46.94048       74.17748       82.00266
C         47.96050       74.76439       81.13875
C         48.48837       73.79410       80.07043
O         48.83790       72.67474       80.41577
C         49.10959       75.20929       82.06506
C         50.13641       76.03409       81.39732
O         51.10825       76.41129       82.02560
O         50.00021       76.35471       80.11191
H         47.15284       74.08906       83.01028
H         47.53756       75.67790       80.66170
H         49.58578       74.31986       82.52332
H         48.69429       75.85856       82.86750
N         48.63668       74.19200       78.76441
C         49.13325       73.33734       77.68268
C         50.44399       73.81313       77.02764
O         50.95937       73.05988       76.21174
C         48.04783       73.25511       76.60022
H         48.37113       75.14751       78.51959
H         49.32469       72.31528       78.07431
H         47.85097       74.26847       76.18215
H         48.35686       72.58829       75.76719
H         47.10184       72.86669       77.03185
N         51.01630       75.03456       77.27041
C         52.23712       75.50736       76.59591
C         53.31758       76.05255       77.54363
O         54.38608       76.38660       77.04829
C         51.88875       76.53354       75.48004
C         51.14992       77.77877       75.89891
O         50.77132       77.97326       77.15976
O         50.86448       78.62501       75.07065
H         50.52566       75.67967       77.89125
H         52.72058       74.65646       76.06432
H         51.25997       76.02159       74.72130
H         52.83130       76.84798       74.97889
N         53.15280       76.15097       78.89672
C         54.21354       76.59630       79.79904
C         54.62766       78.05864       79.67328
O         55.56650       78.43947       80.35889
H         52.27636       75.83489       79.32524
H         55.10394       75.95062       79.64014
H         53.87884       76.45053       80.84983
N         53.98664       78.94265       78.85468
C         54.36316       80.35694       78.71558
C         54.09612       81.23057       79.96397
O         54.29274       82.43465       79.87356
C         53.67454       80.95719       77.45865
C         52.16714       80.99751       77.48987
N         51.48202       81.48176       76.43094
O         51.55464       80.58838       78.45874
H         53.21996       78.58873       78.26808
H         55.45195       80.41016       78.49021
H         53.97758       80.35104       76.57650
H         54.04691       81.99202       77.29735
H         51.97544       81.82352       75.59434
H         50.45328       81.50973       76.44669
N         53.69261       80.71130       81.16220
C         53.44853       81.49284       82.37081
C         52.10168       82.20824       82.41891
O         51.82204       82.82223       83.43841
H         53.63747       79.69932       81.27309
H         54.28849       82.20247       82.53720
H         53.44075       80.78988       83.23207
N         51.22533       82.18991       81.37466
C         49.94583       82.89931       81.34752
C         48.82123       82.03183       80.78443
O         48.95688       81.50680       79.69016
C         50.08299       84.17509       80.47612
C         50.75645       85.30038       81.26379
O         50.82905       83.93041       79.30886
H         51.51011       81.71774       80.51444
H         49.63780       83.23006       82.36475
H         49.07439       84.57057       80.21280
H         50.28126       83.35901       78.71474
H         50.82803       86.21006       80.63156
H         50.13932       85.55383       82.15476
H         51.77240       85.00940       81.59974
N         47.63243       81.92427       81.45136
C         46.44220       81.27571       80.89289
C         46.01507       81.93006       79.58011
O         45.88139       83.14298       79.50546
C         45.27944       81.21149       81.94793
C         45.60674       80.05897       82.94189
C         43.89624       80.98114       81.29831
C         44.58285       79.82480       84.05083
H         47.55020       82.37390       82.37592
H         46.68518       80.23039       80.65158
H         45.20540       82.18676       82.47785
H         46.58921       80.25828       83.41909
H         45.68238       79.10431       82.37315
H         43.64335       81.81585       80.61128
H         43.86817       80.02706       80.74083
H         43.08922       80.98064       82.05768
H         43.59895       79.52150       83.63746
H         44.93385       78.98481       84.68836
H         44.47050       80.73271       84.67577
N         45.68452       81.11991       78.53028
C         45.16862       81.55357       77.23875
C         43.68275       81.21725       77.16212
O         43.14321       80.71273       78.13022
C         45.92863       80.81432       76.11038
C         47.41330       81.03608       76.15202
O         48.13226       80.60291       77.20362
O         47.98244       81.56364       75.21024
H         45.72652       80.10529       78.67290
H         45.27971       82.65278       77.11678
H         45.54660       81.15032       75.12362
H         45.74798       79.71851       76.19166
N         42.94717       81.48292       76.04646
C         41.51943       81.17965       75.93317
C         41.19241       79.68749       76.09482
O         40.35302       79.39686       76.93589
C         40.95733       81.71648       74.60111
C         39.47272       81.45567       74.46986
C         38.55794       82.00992       75.38532
C         38.99164       80.64314       73.42952
C         37.18958       81.74948       75.26072
C         37.62310       80.38649       73.30885
C         36.72277       80.93818       74.22360
H         43.41685       81.93909       75.25009
H         40.99385       81.73309       76.74352
H         41.50540       81.24927       73.75835
H         41.13349       82.81247       74.54216
H         38.89997       82.64078       76.19593
H         39.67565       80.20325       72.71474
H         36.49055       82.17580       75.96900
H         37.26130       79.75749       72.50618
H         35.66367       80.73666       74.12861
N         41.76435       78.68058       75.35639
C         41.41117       77.26811       75.50608
C         41.66621       76.76476       76.91775
O         40.84892       76.02239       77.44346
C         42.26719       76.56555       74.43845
C         43.46579       77.47681       74.29093
C         42.81797       78.85543       74.37248
H         40.34396       77.06572       75.26462
H         42.48872       75.49231       74.62626
H         41.72289       76.63784       73.46983
H         44.12244       77.33061       75.17180
H         44.08467       77.31230       73.38328
H         43.60381       79.57613       74.65896
H         42.35332       79.13107       73.40145
N         42.75938       77.17107       77.60510
C         43.08179       76.76207       78.96873
C         41.99074       77.23761       79.92271
O         41.53909       76.45825       80.74960
C         44.47819       77.31467       79.33344
C         45.55004       76.75329       78.35673
C         46.88902       77.41431       78.46015
O         47.16363       78.27661       79.44556
O         47.73291       77.19947       77.60568
H         43.37478       77.85159       77.14257
H         43.16000       75.65388       79.03315
H         44.75046       77.05501       80.38063
H         44.43428       78.41489       79.24601
H         45.24423       76.92177       77.31040
H         45.65986       75.65607       78.48831
N         41.45787       78.48458       79.79925
C         40.35975       78.96787       80.60767
H         39.48013       78.29821       80.49561
H         40.66165       79.02469       81.67288
H         40.06175       79.98438       80.26575
H         41.80712       79.10209       79.06448
Ca        50.12314       78.36364       79.21131
O         48.53419       78.81348       82.03708
H         47.83887       78.13553       81.85170
H         48.76818       78.66744       82.98682
O         51.27828       79.13638       81.46287
H         51.34214       79.09898       82.44744
H         51.90260       78.43986       81.13543

Ca 1.0



