%chk=holoCaM.loop1.water2.frame1.chk
%nprocshared=20
%mem=10GB
%nosave
#b3lyp/svp scf=(tight,noincore,xqc) Test 
#IOP(5/87=12) Density=Current Pop=(MK,readradii) iop(6/33=2) iop(6/42=6)

holoCaM.loop1.water2.frame1 

   0  1 
C         90.84969       34.00881       33.06112
C         91.05420       32.54352       32.81638
O         92.17880       32.14565       32.56739
H         89.78941       34.23460       33.30035
H         91.48233       34.33438       33.91313
H         91.13683       34.57979       32.15276
N         89.99713       31.68561       32.82621
C         90.09385       30.25163       32.57447
C         89.75788       30.01012       31.11865
O         88.75552       29.39406       30.78766
C         89.21814       29.52414       33.61280
C         89.12341       28.03228       33.48953
O         90.20489       27.23159       33.47980
O         88.01868       27.51730       33.43444
H         89.05361       32.08133       32.95720
H         91.13160       29.89454       32.70603
H         88.18771       29.94106       33.57967
H         89.63730       29.72975       34.61244
N         90.61499       30.51248       30.18421
C         90.43568       30.42662       28.74041
C         90.62828       29.00329       28.20892
O         90.44640       28.81368       27.01425
C         91.46392       31.35695       28.03820
C         91.35941       32.83806       28.47510
C         92.50777       33.66628       27.87516
C         92.57149       35.10638       28.41758
N         91.40713       35.90618       28.03881
H         91.44631       31.00590       30.53246
H         89.41426       30.78892       28.48917
H         91.32996       31.30834       26.93490
H         92.48372       30.98276       28.28093
H         91.44393       32.92592       29.57631
H         90.37218       33.24625       28.17170
H         92.43833       33.67528       26.76612
H         93.46763       33.18078       28.15905
H         93.48541       35.59011       28.00644
H         92.67049       35.08809       29.52661
H         90.53741       35.52194       28.47067
H         91.54297       36.88271       28.38822
H         91.31342       35.93176       26.99777
N         91.01989       27.96548       29.01205
C         91.28009       26.60721       28.52529
C         90.28070       25.59488       29.08929
O         90.32358       24.44315       28.68035
C         92.74335       26.22607       28.86896
C         92.93185       26.19493       30.36069
O         93.53057       27.21838       30.99526
O         92.35797       25.34622       31.02416
H         91.17115       28.13694       30.01444
H         91.16681       26.57549       27.42014
H         93.40883       26.99822       28.42474
H         93.02467       25.24088       28.43825
N         89.34382       25.95198       30.01397
C         88.31132       25.06314       30.51191
C         88.82663       23.89072       31.31541
O         88.46228       22.76336       31.01488
H         89.31083       26.91703       30.36542
H         87.68142       24.71387       29.66615
H         87.65551       25.64803       31.19502
N         89.59845       24.10147       32.41653
C         89.90203       23.07760       33.41289
C         89.26245       23.44444       34.75892
O         89.50196       22.75188       35.73815
C         91.42268       22.80484       33.50213
C         92.30115       23.93145       33.97401
O         93.50515       23.75086       34.05809
O         91.79565       25.12726       34.31232
H         89.91116       25.05922       32.60510
H         89.45548       22.10301       33.11618
H         91.77392       22.49189       32.49486
H         91.58038       21.94841       34.19433
N         88.36519       24.47528       34.85584
C         87.62963       24.82019       36.06103
C         88.42224       25.57508       37.10546
O         87.81296       25.94169       38.10181
H         88.09078       24.99322       34.01193
H         87.16675       23.90716       36.49441
H         86.80136       25.50305       35.76888
N         89.75140       25.85905       36.97522
C         90.50222       26.61313       37.97841
C         91.23496       27.79775       37.36178
O         91.33736       27.88869       36.14510
C         91.49763       25.68266       38.71326
C         90.77602       24.56331       39.48051
O         92.44557       25.14472       37.82335
H         90.25792       25.51379       36.15296
H         89.80422       27.02971       38.73814
H         92.04958       26.27907       39.47134
H         91.99712       24.45364       37.26910
H         90.07518       24.99993       40.22354
H         90.20083       23.91069       38.78939
H         91.51761       23.93683       40.01911
N         91.74919       28.76869       38.17103
C         92.49876       29.93079       37.69705
C         93.80361       29.99880       38.48099
O         93.74232       30.01784       39.70457
C         91.68431       31.24912       37.91005
C         90.27856       31.15465       37.26751
C         92.45688       32.44203       37.30396
C         89.38545       32.36800       37.54463
H         91.57369       28.69532       39.18627
H         92.70297       29.84598       36.60565
H         91.55074       31.41143       39.00250
H         89.74558       30.27119       37.67777
H         90.38489       31.03407       36.17333
H         91.94838       33.40692       37.49149
H         93.46155       32.53331       37.75237
H         92.56603       32.30922       36.20499
H         89.79200       33.29357       37.09061
H         88.38336       32.19700       37.09821
H         89.26561       32.51473       38.63900
N         95.01256       30.10664       37.85896
C         96.25943       30.29003       38.60250
C         96.60784       31.76444       38.67830
O         95.92974       32.58782       38.07917
C         97.43900       29.49874       37.96728
C         97.22088       27.98128       37.95478
O         97.73783       29.98125       36.67983
H         95.02751       30.19819       36.83551
H         96.13091       29.94184       39.65145
H         98.34822       29.65706       38.58466
H         97.12070       29.54968       36.03780
H         98.11808       27.48600       37.52269
H         97.07562       27.60659       38.98912
H         96.33883       27.71339       37.34014
N         97.67999       32.16810       39.41181
C         98.13445       33.55185       39.46141
C         98.49880       34.03630       38.07631
O         98.19291       35.17473       37.75955
C         99.35703       33.72066       40.39560
C         98.99474       33.47463       41.86067
O        100.39716       32.85004       40.02327
H         98.21076       31.45441       39.93265
H         97.32425       34.20502       39.86006
H         99.69893       34.78369       40.34433
H        101.04993       33.37641       39.49248
H         98.63253       32.43863       42.02058
H         99.88989       33.64035       42.49668
H         98.20376       34.18691       42.18046
N         99.20151       33.24471       37.21781
C         99.63509       33.70767       35.90436
C         98.46769       33.92414       34.94291
O         98.62206       34.70560       34.01465
C        100.71728       32.76997       35.31698
C        101.94788       32.74013       36.25476
C        103.15805       31.96059       35.72905
C        102.91932       30.44993       35.60604
N        104.16016       29.76868       35.23185
H         99.47122       32.30077       37.53270
H        100.12252       34.69797       36.04998
H        101.03630       33.16422       34.32774
H        100.30239       31.74789       35.17500
H        101.67807       32.32663       37.24893
H        102.28575       33.78831       36.40544
H        103.98106       32.11565       36.46151
H        103.48067       32.37913       34.75172
H        102.14001       30.24803       34.84015
H        102.56912       30.04678       36.58267
H        103.98093       28.74271       35.14418
H        104.51237       30.13376       34.31723
H        104.88720       29.91871       35.96991
N         97.27733       33.26981       35.08702
C         96.12282       33.51258       34.21579
C         95.43871       34.84913       34.49618
O         94.54631       35.21215       33.74086
C         95.08264       32.39180       34.39169
C         95.57288       31.06599       33.79719
C         94.59105       29.96549       34.06194
O         94.97571       28.85438       34.71291
O         93.43810       30.06953       33.68894
H         97.19948       32.55323       35.82231
H         96.45735       33.51325       33.15384
H         94.14982       32.66470       33.86219
H         94.84373       32.28393       35.47114
H         96.55543       30.78815       34.22347
H         95.69419       31.18562       32.69836
N         95.76470       35.62041       35.56706
C         95.10687       36.87568       35.85482
H         94.01860       36.71004       36.00340
H         95.52685       37.31508       36.78548
H         95.26797       37.58955       35.02024
H         96.48333       35.30474       36.21837
Ca        92.31539       27.67828       32.83104
O         95.86288       27.11384       32.55733
H         96.18223       26.33042       32.04367
H         96.63559       27.38233       33.11421
O         94.41366       26.17739       35.87785
H         94.18864       26.97129       36.42516
H         94.87356       25.56609       36.50639

Ca 1.0



