%chk=holoCaM-CaMKII.loop3.water2.frame20.chk
%nprocshared=20
%mem=10GB
%nosave
#b3lyp/svp scf=(tight,noincore,xqc) Test 
#IOP(5/87=12) Density=Current Pop=(MK,readradii) iop(6/33=2) iop(6/42=6)

holoCaM-CaMKII.loop3.water2.frame20 

   0  1 
C         23.14685       54.08650       32.04258
C         21.82144       54.03987       32.74232
O         21.30949       52.95328       32.96535
H         23.90241       53.53297       32.63676
H         23.04940       53.61864       31.04026
H         23.49712       55.13204       31.90714
N         21.19155       55.19312       33.09380
C         19.88471       55.23896       33.72869
C         18.91485       55.85737       32.74395
O         19.13194       56.98060       32.30989
C         19.98004       56.03800       35.04073
C         18.64329       56.20695       35.70072
O         18.15968       57.44463       35.90152
O         17.98893       55.23763       36.04739
H         21.64140       56.09350       32.86407
H         19.53022       54.21520       33.98484
H         20.39891       57.04657       34.83246
H         20.66734       55.51644       35.74249
N         17.81752       55.15815       32.34046
C         16.87461       55.64608       31.34822
C         15.67360       56.28223       32.02253
O         15.47000       57.46877       31.79948
C         16.46337       54.51971       30.36066
C         17.45440       54.31809       29.19578
C         18.86213       53.83391       29.57868
C         19.80958       53.78491       28.35972
N         20.10572       55.12152       27.82913
H         17.63426       54.24224       32.76861
H         17.33185       56.46560       30.74804
H         15.52087       54.83384       29.86037
H         16.24362       53.56967       30.89717
H         17.51436       55.29256       28.67428
H         17.01935       53.58081       28.48384
H         18.77628       52.81293       30.01157
H         19.32265       54.49772       30.33510
H         19.37791       53.14643       27.55669
H         20.76724       53.32124       28.68356
H         20.50483       55.72752       28.58284
H         20.81027       55.03854       27.06137
H         19.25515       55.57286       27.42666
N         14.80556       55.58736       32.81475
C         13.58688       56.22277       33.32419
C         13.83521       57.40858       34.25978
O         12.90242       58.17615       34.45066
C         12.59381       55.21181       33.94574
C         13.06799       54.52836       35.19895
O         14.30399       54.74281       35.67274
O         12.34729       53.71364       35.75197
H         14.96538       54.58209       32.96497
H         13.07061       56.63367       32.42725
H         12.36503       54.42897       33.18968
H         11.64844       55.74523       34.18207
N         15.03093       57.62604       34.88641
C         15.29580       58.80928       35.70451
C         15.37838       58.52751       37.19615
O         15.65452       59.45620       37.94248
H         15.78854       56.93498       34.78482
H         14.49983       59.57298       35.57541
H         16.24228       59.26973       35.34883
N         15.08684       57.30187       37.71532
C         15.01543       57.01052       39.14783
C         16.36583       56.98520       39.87017
O         16.37063       56.69287       41.05838
C         14.21236       55.70383       39.38251
C         14.78231       54.43607       38.79279
N         14.10088       53.27642       38.93398
O         15.83579       54.44371       38.17667
H         14.79259       56.56902       37.06592
H         14.39864       57.80093       39.63130
H         13.20212       55.84779       38.93913
H         14.07758       55.55171       40.47527
H         13.20321       53.25334       39.43995
H         14.46308       52.40162       38.53054
N         17.53952       57.31981       39.25900
C         18.81357       57.35460       39.96330
C         19.40789       55.98652       40.22903
O         20.47345       55.94175       40.83140
H         17.53992       57.63484       38.28468
H         18.69710       57.92792       40.90940
H         19.55370       57.89706       39.33597
N         18.82553       54.83635       39.78361
C         19.41390       53.51360       39.95194
C         19.68844       52.87150       38.60120
O         19.03663       53.21567       37.62200
C         18.46062       52.60453       40.75228
C         18.22462       53.06051       42.17287
C         16.92524       53.35634       42.62330
C         19.29776       53.15202       43.07546
C         16.70609       53.72873       43.95426
C         19.07649       53.52747       44.40348
C         17.77820       53.81229       44.84901
O         17.54933       54.15892       46.13202
H         17.93733       54.89057       39.27228
H         20.38681       53.58272       40.48509
H         18.88627       51.57905       40.80204
H         17.49326       52.54544       40.20667
H         16.07831       53.28625       41.95160
H         20.30567       52.92149       42.75604
H         15.70016       53.94333       44.29354
H         19.91402       53.58715       45.08704
H         18.26153       54.21248       46.78557
N         20.62776       51.89081       38.48997
C         20.92366       51.16932       37.25486
C         20.59070       49.70313       37.48269
O         21.08192       49.12113       38.44397
C         22.41166       51.34905       36.83070
C         22.77420       52.85240       36.69206
C         22.66471       50.60266       35.49959
C         24.25890       53.09689       36.40052
H         21.15967       51.62687       39.33632
H         20.30251       51.56043       36.41705
H         23.05801       50.90789       37.62152
H         22.55271       53.36915       37.64997
H         22.16103       53.32614       35.89412
H         23.72763       50.65264       35.19430
H         22.41886       49.52510       35.59086
H         22.03943       51.03330       34.68816
H         24.88583       52.64118       37.19674
H         24.56004       52.68589       35.41630
H         24.45837       54.18881       36.37755
N         19.76375       49.04212       36.62931
C         19.32059       47.66553       36.80173
C         19.84580       46.78052       35.68297
O         20.60124       47.25685       34.84649
C         17.78213       47.64983       36.86186
O         17.22591       48.09923       35.65240
H         19.42525       49.54054       35.79787
H         19.69954       47.24582       37.75983
H         17.44196       48.27498       37.71970
H         17.39761       46.63052       37.06445
H         16.89613       49.02292       35.80317
N         19.50758       45.46304       35.62427
C         19.99901       44.53538       34.60876
C         19.57836       44.93355       33.20317
O         20.44539       45.07231       32.35244
C         19.49930       43.11728       34.90207
H         18.88812       45.09029       36.36166
H         21.11134       44.50522       34.66027
H         19.90571       42.40666       34.15092
H         19.84567       42.79751       35.90794
H         18.38964       43.07249       34.87754
N         18.26204       45.12128       32.88224
C         17.80395       45.44400       31.52625
C         18.31244       46.78225       30.99522
O         18.02887       47.09040       29.84485
C         16.27097       45.43848       31.47387
H         17.55856       44.99126       33.62485
H         18.16677       44.64352       30.84401
H         15.91651       45.61572       30.43499
H         15.88316       44.45137       31.80278
H         15.85654       46.23027       32.13411
N         19.08979       47.61105       31.74424
C         19.65095       48.86077       31.25936
C         21.09373       48.60607       30.88170
O         21.45855       48.87210       29.74521
C         19.46810       49.96523       32.32180
C         17.97700       50.09530       32.66191
C         17.66139       51.17716       33.63843
O         16.71517       52.06399       33.32181
O         18.15206       51.19718       34.75230
H         19.33837       47.34714       32.70173
H         19.12277       49.20273       30.33981
H         19.85339       50.92735       31.92110
H         20.03299       49.71338       33.24716
H         17.61411       49.14435       33.10458
H         17.39954       50.28786       31.73106
N         21.94422       47.99559       31.75429
C         23.28710       47.58017       31.40743
H         24.01123       48.03494       32.11229
H         23.35167       46.47300       31.49114
H         23.56423       47.86082       30.37016
H         21.61416       47.75334       32.69539
Ca        15.78504       53.26068       34.95055
O         14.34538       50.71668       35.75085
H         13.71923       51.27920       36.27226
H         13.81819       50.41370       34.97011
O         16.53436       50.78699       38.12879
H         15.71987       50.24250       37.98797
H         16.77233       50.62027       39.07437

Ca 1.0



