%chk=holoCaM-CaMKII.loop3.water2.frame62.chk
%nprocshared=20
%mem=10GB
%nosave
#b3lyp/svp scf=(tight,noincore,xqc) Test 
#IOP(5/87=12) Density=Current Pop=(MK,readradii) iop(6/33=2) iop(6/42=6)

holoCaM-CaMKII.loop3.water2.frame62 

   0  1 
C         86.05836       39.67402       80.70333
C         87.15886       38.72870       80.31992
O         87.27676       37.68359       80.93855
H         85.07962       39.15662       80.62452
H         86.20720       40.01641       81.74893
H         86.04152       40.56461       80.04040
N         88.03268       39.05295       79.32737
C         89.13797       38.20555       78.90299
C         90.41497       38.72349       79.52517
O         91.26013       39.29295       78.85114
C         89.14201       38.09532       77.35858
C         90.37253       37.43028       76.78743
O         91.07287       38.05181       76.00593
O         90.72949       36.17830       77.13140
H         87.94469       39.97741       78.87877
H         89.02371       37.19561       79.31405
H         89.07943       39.11586       76.92412
H         88.23881       37.53001       77.03859
N         90.60489       38.52624       80.86098
C         91.77611       38.98785       81.59572
C         93.04048       38.17648       81.30168
O         94.07621       38.53384       81.84567
C         91.49401       38.98047       83.11694
C         90.27182       39.84999       83.47106
C         90.08925       39.97912       84.98776
C         88.86303       40.83060       85.36482
N         87.59863       40.16932       85.03016
H         89.85617       38.04689       81.38264
H         91.96352       40.04805       81.31530
H         92.38436       39.39478       83.63925
H         91.32800       37.94020       83.47654
H         89.36440       39.40212       83.02430
H         90.40857       40.86871       83.04662
H         90.99519       40.47862       85.39574
H         90.00112       38.97680       85.46006
H         88.91925       41.82315       84.86419
H         88.88697       41.00184       86.46319
H         87.49939       40.03305       84.00036
H         87.53878       39.24604       85.51836
H         86.80626       40.76935       85.35418
N         93.05616       37.10303       80.45285
C         94.27777       36.36720       80.11461
C         94.72093       36.64597       78.68287
O         95.78140       36.17003       78.30031
C         94.14658       34.85288       80.41437
C         92.98278       34.16611       79.75547
O         93.17240       33.27493       78.94432
O         91.72617       34.45850       80.13514
H         92.18745       36.82684       79.97860
H         95.12624       36.72723       80.73538
H         94.04031       34.70005       81.50886
H         95.09036       34.35299       80.10082
N         94.00670       37.46032       77.85539
C         94.45644       37.87419       76.54160
C         94.66522       36.71316       75.61327
O         95.73954       36.61151       75.03807
H         93.11365       37.85448       78.16739
H         95.39447       38.46500       76.63439
H         93.68640       38.53966       76.09571
N         93.67207       35.80335       75.40882
C         93.78462       34.70873       74.45371
C         92.72204       34.80429       73.36008
O         92.79048       34.02177       72.42199
C         93.79679       33.35275       75.19397
C         92.45887       32.88392       75.71616
N         91.99684       31.65541       75.38332
O         91.80134       33.59329       76.46051
H         92.81095       35.89581       75.95717
H         94.76857       34.78248       73.94287
H         94.50996       33.42978       76.04437
H         94.19454       32.57868       74.50383
H         92.54609       31.02802       74.77698
H         91.09382       31.31677       75.74257
N         91.71462       35.73325       73.40576
C         90.72466       35.91904       72.35976
C         89.34101       35.44210       72.75713
O         88.44398       35.57306       71.93900
H         91.62093       36.35966       74.21264
H         91.00224       35.34973       71.44644
H         90.70139       36.99567       72.08373
N         89.11162       34.77899       73.93208
C         87.88044       34.03127       74.18544
C         87.30080       34.29300       75.56096
O         88.03890       34.31497       76.52537
C         88.22039       32.53472       74.05869
C         88.65846       32.21108       72.64782
C         87.75750       32.36452       71.57984
C         89.96450       31.77078       72.38005
C         88.15655       32.08790       70.27101
C         90.36325       31.49417       71.06918
C         89.45865       31.65254       70.00948
O         89.82747       31.39040       68.73982
H         89.88694       34.64180       74.59548
H         87.09675       34.25940       73.43359
H         87.33387       31.91124       74.30439
H         89.02374       32.28830       74.78754
H         86.74449       32.70127       71.75916
H         90.67807       31.64967       73.17875
H         87.45110       32.21421       69.45984
H         91.37528       31.15972       70.87877
H         90.71777       31.08502       68.51542
N         85.94667       34.35579       75.72469
C         85.27148       34.48863       77.01527
C         84.54000       33.18630       77.31337
O         83.76677       32.73163       76.48381
C         84.26184       35.67514       76.96890
C         85.00219       37.01081       76.70821
C         83.43950       35.75204       78.27746
C         84.05311       38.18107       76.43521
H         85.34967       34.24535       74.89184
H         85.99824       34.68581       77.83540
H         83.55698       35.48810       76.12782
H         85.64228       36.90909       75.80653
H         85.65917       37.25529       77.57227
H         82.87825       34.81140       78.45170
H         84.10274       35.93574       79.14945
H         82.67205       36.54842       78.23223
H         84.64518       39.09450       76.21946
H         83.41803       37.95510       75.55161
H         83.40324       38.40284       77.30444
N         84.69367       32.57731       78.52620
C         83.97281       31.36970       78.92625
C         82.93878       31.70418       79.99458
O         82.81604       32.85672       80.36632
C         84.97870       30.31548       79.41521
O         85.65311       30.77955       80.55567
H         85.30640       33.02062       79.22380
H         83.41689       30.94331       78.06412
H         85.69254       30.10395       78.58445
H         84.46402       29.36448       79.66678
H         86.59920       30.49204       80.47506
N         82.12874       30.73326       80.50754
C         81.08016       30.99126       81.49658
C         81.63782       31.56059       82.78744
O         81.15749       32.59394       83.23368
C         80.31780       29.69850       81.80386
H         82.24637       29.77109       80.15887
H         80.34348       31.70924       81.07062
H         79.50237       29.90182       82.53134
H         79.86156       29.30119       80.87243
H         80.99587       28.92811       82.22840
N         82.66939       30.94488       83.42974
C         83.27020       31.43561       84.66956
C         83.67334       32.88838       84.54755
O         83.35513       33.68422       85.41942
C         84.51806       30.60464       85.00401
H         83.07409       30.10417       82.98727
H         82.54865       31.33197       85.50924
H         85.27228       30.68038       84.18907
H         84.98293       30.96693       85.94620
H         84.24574       29.53658       85.13365
N         84.36758       33.29362       83.45724
C         84.84609       34.65233       83.24700
C         83.69431       35.64583       83.26522
O         83.74868       36.58850       84.04291
C         85.65120       34.71179       81.93568
C         86.88343       33.77952       82.02254
C         87.70107       33.82516       80.78199
O         87.87427       32.82449       80.10593
O         88.27301       34.97489       80.42222
H         84.54865       32.58290       82.73434
H         85.54847       34.92698       84.06625
H         85.99161       35.75310       81.77403
H         85.00521       34.42391       81.07899
H         86.58646       32.72678       82.18715
H         87.52692       34.08879       82.87319
N         82.59747       35.46827       82.47840
C         81.43887       36.33928       82.50126
H         80.55195       35.75674       82.83164
H         81.56524       37.19864       83.19251
H         81.24821       36.73025       81.48059
H         82.55553       34.65406       81.85879
Ca        89.50280       35.03022       78.57865
O         90.52653       31.50314       80.13227
H         90.14861       30.62300       79.88159
H         90.38281       31.56548       81.11009
O         88.67059       31.42605       77.41793
H         89.27656       30.67884       77.18512
H         87.77651       31.12063       77.12230

Ca 1.0



