%chk=holoCaM.loop1.water2.frame57.chk
%nprocshared=20
%mem=10GB
%nosave
#b3lyp/svp scf=(tight,noincore,xqc) Test 
#IOP(5/87=12) Density=Current Pop=(MK,readradii) iop(6/33=2) iop(6/42=6)

holoCaM.loop1.water2.frame57 

   0  1 
C         76.26438       14.78541       40.59037
C         75.73589       16.10569       41.04228
O         76.11594       16.55937       42.11376
H         76.98735       14.38700       41.33460
H         75.42275       14.07230       40.48244
H         76.78349       14.90778       39.61706
N         74.87158       16.80843       40.25682
C         74.39512       18.11547       40.66677
C         73.41365       17.95584       41.82302
O         72.32544       17.43977       41.60182
C         73.73112       18.85738       39.49193
C         73.57131       20.30829       39.81009
O         73.00430       21.04274       39.01933
O         74.15824       20.82571       40.90965
H         74.61121       16.43115       39.33198
H         75.30118       18.69341       40.96159
H         72.75256       18.39033       39.24141
H         74.37656       18.80523       38.58749
N         73.76394       18.28727       43.09852
C         72.91298       17.94984       44.23951
C         71.69993       18.85420       44.42175
O         70.82142       18.45693       45.17493
C         73.71999       17.86003       45.55408
C         74.30376       19.20627       46.01947
C         75.03004       19.12888       47.36672
C         76.27854       18.23292       47.32868
N         76.96150       18.24449       48.62027
H         74.72446       18.61623       43.25801
H         72.53647       16.91684       44.05868
H         74.53544       17.12306       45.39992
H         73.05069       17.47160       46.35231
H         73.48062       19.94558       46.12369
H         75.02138       19.57956       45.27826
H         74.32434       18.77049       48.14633
H         75.35042       20.16030       47.63357
H         76.97654       18.60061       46.54485
H         75.99731       17.18714       47.08489
H         76.32259       17.88115       49.36435
H         77.80508       17.62937       48.56605
H         77.26519       19.21680       48.85776
N         71.58862       20.08391       43.83246
C         70.42288       20.95151       44.03984
C         69.66970       21.23831       42.74329
O         68.65962       21.92665       42.80225
C         70.80840       22.23758       44.81203
C         71.72123       23.19441       44.10346
O         72.07492       24.34194       44.71272
O         72.13123       22.96116       42.98277
H         72.35932       20.42594       43.24025
H         69.68516       20.44286       44.69754
H         71.28835       21.94416       45.77118
H         69.87757       22.79376       45.05802
N         70.04625       20.68965       41.55013
C         69.24875       20.80020       40.33812
C         69.21069       22.16877       39.68075
O         68.53361       22.27630       38.66838
H         70.86874       20.07192       41.50566
H         68.21235       20.46689       40.56466
H         69.66472       20.09915       39.58172
N         69.90683       23.24844       40.14514
C         69.88234       24.55132       39.46182
C         70.43478       24.50428       38.02941
O         70.26723       25.49353       37.32850
C         70.60749       25.65372       40.29262
C         72.03725       25.32735       40.61711
O         72.70428       26.05738       41.33204
O         72.52056       24.14869       40.22339
H         70.44889       23.14663       41.01193
H         68.81662       24.85800       39.38565
H         70.07478       25.76362       41.26149
H         70.56426       26.62597       39.75821
N         71.09961       23.42175       37.52135
C         71.56153       23.32804       36.14107
C         73.07504       23.35373       36.00431
O         73.55155       23.19407       34.89220
H         71.29328       22.61425       38.12686
H         71.16981       24.16436       35.52181
H         71.16141       22.38566       35.70772
N         73.88613       23.63005       37.06780
C         75.33819       23.80105       36.96731
C         76.08974       22.95105       37.98613
O         75.48261       22.34818       38.84820
C         75.68824       25.30686       37.18296
C         75.38834       26.11762       35.92430
O         74.97016       25.88701       38.24942
H         73.45284       23.80887       37.97808
H         75.70729       23.47763       35.96991
H         76.77787       25.42729       37.36776
H         74.88042       25.22767       38.98151
H         74.31316       26.06208       35.65643
H         75.66148       27.18116       36.09652
H         76.00017       25.73848       35.07782
N         77.45368       22.86053       37.91195
C         78.29247       22.14859       38.87618
C         79.40507       23.07761       39.36372
O         80.23338       23.50071       38.57143
C         78.83590       20.82310       38.24108
C         77.69577       19.76155       38.27510
C         80.09607       20.29219       38.95454
C         78.07717       18.37770       37.74588
H         77.92711       23.31381       37.11745
H         77.70157       21.85833       39.76982
H         79.15081       21.02444       37.19327
H         76.83400       20.13368       37.68199
H         77.35455       19.61944       39.32613
H         80.92056       21.03006       38.90044
H         79.89016       20.05087       40.00798
H         80.49382       19.39197       38.44710
H         78.86202       17.90890       38.37588
H         77.19036       17.71064       37.79716
H         78.42589       18.44274       36.69562
N         79.48334       23.40729       40.68765
C         80.57317       24.17327       41.28740
C         81.81421       23.30067       41.42014
O         81.77846       22.12965       41.07148
C         80.17391       24.66291       42.71841
C         78.98923       25.62817       42.69875
O         79.87885       23.56188       43.54208
H         78.74718       23.07064       41.31257
H         80.79136       25.06962       40.66677
H         81.02534       25.22992       43.15292
H         79.83637       23.89669       44.47597
H         78.07675       25.10654       42.37389
H         78.80116       26.01573       43.72208
H         79.20068       26.48889       42.02912
N         82.93374       23.80045       42.01219
C         84.05748       22.96665       42.42235
C         83.58347       21.91725       43.41735
O         83.95776       20.76214       43.27713
C         85.17966       23.81440       43.07790
C         85.83236       24.76878       42.07325
O         84.67176       24.54504       44.16604
H         82.95328       24.80042       42.25678
H         84.50377       22.45371       41.54003
H         85.96751       23.10679       43.43249
H         85.44049       24.76211       44.75542
H         85.09953       25.50046       41.67593
H         86.65352       25.32776       42.57000
H         86.26481       24.19322       41.22742
N         82.78306       22.25981       44.47096
C         82.40694       21.30743       45.51352
C         81.44649       20.21665       45.03419
O         81.20381       19.29508       45.80161
C         81.79822       22.00870       46.75508
C         82.56506       23.25108       47.26708
C         84.09124       23.09145       47.40454
C         84.56140       22.00413       48.38013
N         84.17079       22.29299       49.75870
H         82.49974       23.24386       44.56007
H         83.34873       20.81998       45.84834
H         81.74287       21.25542       47.57211
H         80.75888       22.33800       46.53354
H         82.11369       23.57454       48.22878
H         82.39650       24.08951       46.56026
H         84.51680       24.06779       47.72344
H         84.51849       22.86719       46.40529
H         85.67236       21.96389       48.32587
H         84.17389       21.00910       48.07529
H         84.54172       23.22735       50.04812
H         83.13141       22.27273       49.85786
H         84.57980       21.56137       50.38344
N         80.87298       20.23890       43.79272
C         80.00629       19.17755       43.28006
C         80.70812       18.38846       42.17675
O         80.17584       17.36232       41.77662
C         78.69230       19.77347       42.72153
C         77.85008       20.52921       43.75627
C         76.67930       21.20731       43.08959
O         76.86644       22.02083       42.20662
O         75.41905       20.95617       43.46912
H         81.07601       21.02334       43.16362
H         79.77346       18.44787       44.08651
H         78.06674       18.96709       42.27639
H         78.96392       20.48982       41.92104
H         78.46621       21.31493       44.23946
H         77.49543       19.82385       44.53596
N         81.89368       18.79674       41.63375
C         82.61889       18.06410       40.61828
H         83.64586       17.85812       40.98864
H         82.13612       17.09917       40.36344
H         82.69385       18.68450       39.70075
H         82.31903       19.67939       41.92589
Ca        74.14531       23.02434       41.17867
O         75.48701       24.09961       43.79133
H         75.77154       25.04661       43.75642
H         74.70006       24.09557       44.39066
O         76.90122       24.88952       40.25229
H         76.62534       25.76163       40.62975
H         76.53850       24.22089       40.88446

Ca 1.0



