%chk=holoCaM.loop3.water2.frame140.chk
%nprocshared=20
%mem=10GB
%nosave
#b3lyp/svp scf=(tight,noincore,xqc) Test 
#IOP(5/87=12) Density=Current Pop=(MK,readradii) iop(6/33=2) iop(6/42=6)

holoCaM.loop3.water2.frame140 

   0  1 
C         30.67104       83.28398       -5.59546
C         30.16062       82.40817       -4.49092
O         30.93305       81.66609       -3.90082
H         31.76042       83.13542       -5.74953
H         30.13407       83.04965       -6.53789
H         30.49159       84.34859       -5.33134
N         28.84993       82.47389       -4.13637
C         28.28911       81.71885       -3.02435
C         28.31875       80.22183       -3.31809
O         27.75573       79.80348       -4.32071
C         26.86696       82.22050       -2.74305
C         26.39988       81.72904       -1.42080
O         26.29539       80.54204       -1.20475
O         26.13807       82.60339       -0.44448
H         28.24577       83.13760       -4.64746
H         28.89989       81.95075       -2.12419
H         26.16481       81.92610       -3.55309
H         26.88440       83.33166       -2.68442
N         29.01796       79.36732       -2.51340
C         29.30397       77.98399       -2.90129
C         28.10729       77.01916       -2.81797
O         28.22602       75.91063       -3.31868
C         30.53753       77.48525       -2.11255
C         31.24814       76.31091       -2.79620
C         32.58765       75.99472       -2.11449
C         33.43989       75.00892       -2.93197
N         32.78640       73.71290       -3.11300
H         29.50143       79.76612       -1.69321
H         29.62248       78.04168       -3.96647
H         30.26874       77.25134       -1.06110
H         31.27740       78.31796       -2.10401
H         31.46412       76.60956       -3.84538
H         30.59865       75.41365       -2.79746
H         32.41032       75.60661       -1.08804
H         33.18306       76.93150       -2.03098
H         34.40717       74.86028       -2.40347
H         33.66377       75.45246       -3.92869
H         33.43949       73.07596       -3.62347
H         32.55482       73.29343       -2.18408
H         31.92104       73.81323       -3.68976
N         26.92388       77.37127       -2.23436
C         25.71465       76.53494       -2.23195
C         24.64363       77.22533       -3.06884
O         24.13696       76.62392       -4.00528
C         25.26303       76.17933       -0.78512
C         24.96435       77.35322        0.10398
O         25.79133       77.62377        1.12330
O         24.01313       78.08544       -0.10761
H         26.86639       78.29364       -1.79422
H         25.91706       75.55240       -2.71425
H         26.10040       75.61147       -0.32292
H         24.37644       75.50977       -0.80545
N         24.32820       78.52824       -2.83625
C         23.45042       79.34407       -3.64770
C         22.36880       80.01037       -2.82534
O         21.21448       79.93513       -3.22120
H         24.81334       79.01166       -2.08486
H         23.00510       78.77059       -4.49026
H         24.07234       80.15333       -4.08641
N         22.66896       80.71337       -1.68808
C         21.68591       81.50266       -0.94773
C         22.13370       82.96093       -0.79127
O         21.41815       83.72595       -0.16063
C         21.35571       80.84544        0.40977
C         22.38868       81.04589        1.48954
N         22.04189       81.64646        2.65475
O         23.53354       80.65829        1.32409
H         23.63435       80.70304       -1.33380
H         20.72433       81.50506       -1.50541
H         21.17546       79.75954        0.25249
H         20.39771       81.28175        0.76820
H         21.07726       81.97348        2.81791
H         22.73160       81.77630        3.40737
N         23.28322       83.42814       -1.36763
C         23.71148       84.81646       -1.30501
C         24.36505       85.24774       -0.00253
O         24.76678       86.40179        0.05315
H         23.84192       82.81063       -1.97147
H         22.86109       85.47951       -1.56741
H         24.49531       84.96384       -2.08233
N         24.59212       84.39808        1.04383
C         25.38975       84.77747        2.21010
C         26.69232       84.00852        2.17974
O         26.67212       82.78500        2.18016
C         24.66026       84.52475        3.54085
C         23.51242       85.48145        3.75113
C         22.35188       85.41302        2.96424
C         23.60476       86.46749        4.75017
C         21.30648       86.31952        3.16858
C         22.56281       87.37465        4.94911
C         21.40902       87.30455        4.15745
O         20.39677       88.17631        4.33808
H         24.27114       83.42085        0.98362
H         25.64515       85.86003        2.18686
H         25.40688       84.69568        4.34934
H         24.32516       83.47126        3.63171
H         22.25192       84.65831        2.19774
H         24.48946       86.54482        5.37066
H         20.41634       86.25717        2.55594
H         22.65623       88.13232        5.71719
H         20.43403       88.87413        5.00809
N         27.87715       84.68159        2.17844
C         29.17458       84.03004        2.10809
C         29.74773       83.97944        3.50961
O         29.91388       85.01441        4.14101
C         30.09487       84.76507        1.08268
C         29.43697       84.73124       -0.32453
C         31.50203       84.13459        1.04813
C         30.22582       85.46023       -1.41514
H         27.86728       85.70962        2.27171
H         29.05851       82.98302        1.74864
H         30.20811       85.82466        1.40392
H         28.43689       85.21215       -0.27106
H         29.29391       83.67718       -0.63952
H         31.96978       84.14877        2.05401
H         31.45236       83.09032        0.68315
H         32.18164       84.70813        0.38601
H         31.20676       84.97739       -1.60027
H         29.65595       85.41890       -2.36797
H         30.37976       86.52394       -1.13722
N         30.08119       82.77410        4.04664
C         30.63406       82.57941        5.37955
C         32.11253       82.27206        5.26443
O         32.63877       82.34572        4.16772
C         29.86736       81.43395        6.07125
O         30.04985       80.23375        5.36675
H         29.98485       81.93604        3.45483
H         30.52993       83.49852        5.99606
H         28.78723       81.70433        6.10509
H         30.22432       81.29479        7.11285
H         29.30562       79.63234        5.62981
N         32.85964       81.93869        6.34972
C         34.27622       81.58827        6.26856
C         34.50297       80.35483        5.40252
O         35.37975       80.38932        4.55103
C         34.84085       81.34452        7.66748
H         32.40006       81.92383        7.27342
H         34.84674       82.44491        5.84155
H         34.71703       82.26266        8.28150
H         34.31908       80.50101        8.16562
H         35.92654       81.11678        7.60128
N         33.72176       79.24025        5.54203
C         33.88471       78.01886        4.73887
C         33.69718       78.21957        3.22851
O         33.87225       77.26484        2.48341
C         32.87313       76.96283        5.21256
H         32.98195       79.26235        6.26118
H         34.91020       77.62875        4.91450
H         33.01399       76.00579        4.66642
H         33.00147       76.76461        6.29761
H         31.83366       77.32087        5.03843
N         33.32558       79.41946        2.71199
C         33.03853       79.70326        1.31285
C         34.03618       80.71208        0.76196
O         34.49579       80.52874       -0.35626
C         31.59715       80.24591        1.24427
C         30.61432       79.16123        1.69981
C         29.23087       79.66571        1.95504
O         28.51780       80.31973        1.02822
O         28.69760       79.41083        3.02234
H         33.15377       80.18864        3.35657
H         33.09669       78.78861        0.67875
H         31.33327       80.56048        0.20965
H         31.52365       81.12747        1.91184
H         30.95372       78.69569        2.64963
H         30.58512       78.36418        0.93065
N         34.45395       81.77969        1.49902
C         35.41175       82.74559        1.01397
H         36.35824       82.23822        0.73194
H         34.99123       83.28546        0.14139
H         35.63534       83.48350        1.81596
H         34.11560       81.91024        2.45289
Ca        26.37653       79.76732        1.35299
O         26.14161       80.68198        4.41755
H         26.53091       81.46853        4.87524
H         25.16823       80.75679        4.58202
O         24.13375       78.47116        3.42068
H         24.26722       77.50063        3.27994
H         23.20780       78.63947        3.11477

Ca 1.0



