%chk=holoCaM-CaMKII.loop3.water2.frame339.chk
%nprocshared=20
%mem=10GB
%nosave
#b3lyp/svp scf=(tight,noincore,xqc) Test 
#IOP(5/87=12) Density=Current Pop=(MK,readradii) iop(6/33=2) iop(6/42=6)

holoCaM-CaMKII.loop3.water2.frame339 

   0  1 
C         18.90254       45.50801       55.03067
C         17.72055       44.65737       54.68298
O         16.87130       45.10977       53.92748
H         19.45606       45.76392       54.10305
H         18.55351       46.44049       55.52023
H         19.59215       44.97835       55.72084
N         17.60362       43.39630       55.18389
C         16.48739       42.53269       54.84152
C         15.18254       43.11374       55.39126
O         15.05877       43.27357       56.59772
C         16.72114       41.10977       55.38812
C         15.66967       40.17324       54.89507
O         15.62848       39.02779       55.29812
O         14.75770       40.60710       54.01519
H         18.35077       43.03043       55.79440
H         16.45437       42.45952       53.72913
H         16.70403       41.13379       56.49915
H         17.70525       40.71656       55.05671
N         14.18228       43.48430       54.54346
C         12.96087       44.15524       54.98027
C         12.04859       43.23174       55.77907
O         11.71007       43.57720       56.90205
C         12.22653       44.75751       53.76253
C         11.13333       45.75540       54.17159
C         10.54647       46.46120       52.94136
C          9.54956       47.55159       53.35691
N          9.02070       48.25244       52.18717
H         14.33975       43.35633       53.53552
H         13.26593       45.02464       55.60618
H         11.80340       43.96119       53.11798
H         12.97552       45.33040       53.17262
H         11.59312       46.52801       54.82693
H         10.32826       45.23909       54.73783
H         10.04548       45.71651       52.28501
H         11.37077       46.94208       52.36886
H         10.06372       48.28759       54.01560
H          8.71049       47.09617       53.92758
H          8.50713       47.58385       51.56868
H          8.36028       48.99825       52.50505
H          9.80062       48.70048       51.65264
N         11.61928       42.03869       55.26376
C         10.71079       41.12912       55.96298
C         11.42900       40.00175       56.69558
O         10.75262       39.18556       57.30652
C          9.52512       40.70013       55.05647
C          9.70934       39.74782       53.89090
O          8.77044       39.60074       53.12611
O         10.74995       38.90495       53.76690
H         11.96777       41.76075       54.34452
H         10.21883       41.69311       56.78673
H          9.06084       41.63213       54.66772
H          8.75589       40.21338       55.69600
N         12.79136       39.97460       56.80902
C         13.49028       39.08124       57.72304
C         13.48192       37.61088       57.35628
O         13.96499       36.83229       58.16635
H         13.35459       40.70115       56.34768
H         13.03921       39.20455       58.73248
H         14.55358       39.39570       57.80175
N         12.97636       37.13839       56.17993
C         12.91433       35.70690       55.87418
C         14.27757       35.02362       55.75703
O         14.29315       33.80520       55.63515
C         12.11036       35.45260       54.57850
C         12.87117       35.82700       53.32422
N         13.13179       34.90019       52.37535
O         13.26515       36.96872       53.16339
H         12.56855       37.80453       55.51462
H         12.34987       35.23606       56.71004
H         11.15091       36.01156       54.62274
H         11.85903       34.37099       54.53095
H         12.81684       33.92486       52.47941
H         13.65073       35.16606       51.52785
N         15.45045       35.72219       55.74572
C         16.75504       35.09942       55.61678
C         17.55716       35.58068       54.41731
O         18.68116       35.12338       54.29758
H         15.43449       36.74072       55.84784
H         16.67353       33.99358       55.54723
H         17.33815       35.33298       56.53457
N         17.09402       36.50874       53.51380
C         17.94361       36.99687       52.41434
C         17.47703       38.34343       51.85151
O         16.46783       38.87009       52.28205
C         18.18682       35.89283       51.35219
C         16.98072       35.45823       50.55216
C         16.42675       36.30115       49.57431
C         16.43667       34.17357       50.73201
C         15.35210       35.86796       48.79176
C         15.35694       33.74510       49.95309
C         14.81248       34.58836       48.97942
O         13.77806       34.15802       48.22921
H         16.16196       36.91604       53.65008
H         18.93229       37.24310       52.86106
H         18.60819       35.00951       51.87320
H         18.97409       36.20965       50.63641
H         16.83893       37.28398       49.39483
H         16.84812       33.49973       51.47319
H         14.94539       36.52502       48.03361
H         14.94578       32.75476       50.10374
H         13.37876       34.70765       47.53967
N         18.26094       38.99930       50.93851
C         18.06580       40.39782       50.54748
C         17.80912       40.49918       49.04541
O         18.59215       39.97737       48.26732
C         19.33920       41.20622       50.95225
C         19.63337       41.04097       52.47033
C         19.17669       42.69729       50.58907
C         20.97227       41.63645       52.91018
H         19.09910       38.52461       50.57720
H         17.20514       40.84403       51.09212
H         20.20333       40.79218       50.38587
H         19.69106       39.96195       52.72554
H         18.81210       41.49179       53.06555
H         20.09769       43.26973       50.81534
H         18.98950       42.82403       49.50326
H         18.32813       43.14431       51.15111
H         21.12833       41.42845       53.99018
H         21.80273       41.16633       52.34063
H         21.00303       42.73457       52.77194
N         16.73307       41.20498       48.57990
C         16.38685       41.35927       47.16645
C         16.45619       42.82684       46.74012
O         16.82391       43.66947       47.54103
C         14.98299       40.77627       46.94167
O         14.98896       39.41474       47.27030
H         16.12156       41.66986       49.26118
H         17.09884       40.80060       46.52106
H         14.69223       40.88377       45.87462
H         14.24767       41.31568       47.58049
H         14.09253       39.06578       47.02690
N         16.15261       43.18983       45.45714
C         16.29368       44.54874       44.92834
C         15.42340       45.56886       45.64047
O         15.95969       46.54448       46.14813
C         15.95234       44.56873       43.43174
H         15.85709       42.44998       44.80400
H         17.35851       44.85641       45.02761
H         16.62018       43.87422       42.88040
H         14.89982       44.25641       43.25875
H         16.09213       45.59114       43.01916
N         14.06961       45.42317       45.69554
C         13.17811       46.39945       46.32077
C         13.57283       46.66419       47.75521
O         13.59882       47.81385       48.17186
C         11.73047       45.89068       46.28904
H         13.65643       44.57209       45.28307
H         13.20756       47.35716       45.75466
H         11.04990       46.64077       46.74841
H         11.40561       45.72454       45.24035
H         11.63426       44.93562       46.85003
N         13.90825       45.62456       48.56062
C         14.24213       45.76750       49.97012
C         15.42833       46.69886       50.15259
O         15.28710       47.71120       50.82517
C         14.50857       44.38528       50.60789
C         13.29165       43.44820       50.43808
C         13.44542       42.14941       51.15813
O         12.48892       41.75612       52.01039
O         14.39188       41.41570       50.93650
H         13.92174       44.69009       48.13196
H         13.36415       46.20729       50.49648
H         14.71601       44.54775       51.68388
H         15.40399       43.90800       50.15353
H         13.13284       43.19309       49.37373
H         12.37470       43.95476       50.80680
N         16.62192       46.43783       49.55541
C         17.75709       47.32744       49.66871
H         18.61273       46.92448       49.08543
H         17.49583       48.32826       49.26220
H         18.06239       47.42491       50.73157
H         16.72568       45.59161       48.98447
Ca        12.84427       39.58639       53.69189
O         11.29214       38.56442       50.64202
H         11.08695       37.84066       51.28544
H         10.50700       38.59316       50.04003
O         14.22476       38.53582       50.26029
H         15.03018       38.98601       49.90206
H         13.73501       38.22943       49.45670

Ca 1.0



