%chk=holoCaM-CaMKII.loop4.water1.frame444.chk
%nprocshared=20
%mem=10GB
%nosave
#b3lyp/svp scf=(tight,noincore,xqc) Test 
#IOP(5/87=12) Density=Current Pop=(MK,readradii) iop(6/33=2) iop(6/42=6)

holoCaM-CaMKII.loop4.water1.frame444 

   -3  1 
C         64.72200       91.19599       16.80486
C         64.36230       91.92072       18.06804
O         63.18368       92.11033       18.32133
H         65.82193       91.08514       16.69981
H         64.26349       90.18529       16.81213
H         64.34090       91.76511       15.93113
N         65.33379       92.35493       18.91646
C         65.05480       93.06993       20.15600
C         64.35934       94.39623       19.87177
O         64.90047       95.21663       19.14401
C         66.37104       93.30579       20.92228
C         66.14921       94.03999       22.21103
O         66.69154       95.11630       22.39584
O         65.35261       93.52002       23.16300
H         66.31659       92.15579       18.67248
H         64.40962       92.42863       20.79947
H         67.07383       93.88600       20.28441
H         66.84020       92.32479       21.15482
N         63.16270       94.67175       20.46329
C         62.40920       95.91073       20.29052
C         62.41316       96.72985       21.58365
O         62.30492       97.94557       21.49782
C         60.94904       95.58580       19.83221
C         60.89273       94.64444       18.60106
C         60.11203       96.85324       19.57422
C         61.57334       95.18091       17.33935
H         62.76864       93.95726       21.07867
H         62.90149       96.53937       19.51715
H         60.44791       95.03200       20.65869
H         59.82947       94.42266       18.36138
H         61.36110       93.67855       18.87048
H         60.56527       97.48244       18.78123
H         59.08175       96.57264       19.26485
H         60.01554       97.46143       20.49594
H         62.65308       95.35812       17.51479
H         61.47987       94.42873       16.52782
H         61.09526       96.11978       16.99478
N         62.50344       96.14535       22.81594
C         62.47611       96.90889       24.06175
C         63.72116       97.77590       24.17988
O         63.61507       98.98760       24.30023
C         62.41500       95.96482       25.28767
C         61.25270       95.00578       25.24127
O         60.10939       95.42982       25.19580
O         61.47048       93.67119       25.27379
H         62.56445       95.12200       22.88363
H         61.55845       97.53872       24.07987
H         62.34436       96.57367       26.21506
H         63.34724       95.37588       25.34534
N         64.94345       97.17859       24.16774
C         66.22416       97.85439       24.30582
C         66.98494       97.33020       25.51234
O         67.47305       98.12309       26.30418
H         64.96153       96.16110       24.02970
H         66.11418       98.95876       24.37436
H         66.81987       97.63248       23.39538
N         67.10082       95.98812       25.71813
C         67.82427       95.35336       26.81579
C         68.77554       94.27039       26.30665
O         69.41299       93.62723       27.12949
C         66.82358       94.79272       27.85475
C         65.59255       94.16850       27.25918
O         64.50464       94.65044       27.53305
O         65.64103       93.14367       26.38917
H         66.60822       95.35362       25.07756
H         68.45767       96.08645       27.36294
H         66.46791       95.65500       28.46291
H         67.32915       94.09581       28.55647
N         68.96492       94.03433       24.97610
C         69.88761       93.04017       24.46498
C         69.45932       91.63425       24.79899
O         70.25403       90.89072       25.35444
H         68.47784       94.60004       24.27035
H         70.91477       93.24726       24.83720
H         69.90840       93.11637       23.35563
N         68.22827       91.18988       24.41763
C         67.79164       89.79448       24.52700
C         66.48501       89.55178       23.78173
O         65.80065       90.49716       23.41250
C         67.78508       89.25675       25.98771
C         67.06308       90.10424       27.05563
C         65.55568       90.11203       27.02718
N         64.88447       90.79638       27.98354
O         64.93268       89.49342       26.17896
H         67.61621       91.87532       23.95062
H         68.53654       89.19120       23.96145
H         68.84150       89.21452       26.32016
H         67.42220       88.20663       26.01871
H         67.44569       91.14647       27.01739
H         67.34386       89.68215       28.04570
H         65.39502       91.31372       28.71530
H         63.85541       90.80990       27.99991
N         66.13534       88.27805       23.43560
C         64.99159       87.96520       22.58573
C         64.05724       87.02057       23.31387
O         64.42836       85.88773       23.59005
C         65.49153       87.36619       21.23836
C         64.33732       86.89257       20.33905
C         66.32733       88.40445       20.46915
H         66.74577       87.49885       23.72793
H         64.42491       88.89034       22.34035
H         66.13439       86.48286       21.45172
H         63.76039       86.08480       20.83312
H         63.65431       87.73157       20.09457
H         64.73914       86.47099       19.39265
H         67.20304       88.73293       21.06641
H         66.70882       87.96805       19.52158
H         65.70986       89.29670       20.22363
N         62.80607       87.44083       23.64675
C         61.79940       86.58987       24.26926
C         61.14340       85.73783       23.18236
O         61.40765       85.97278       22.01130
C         60.81065       87.52810       25.02030
C         59.81123       86.88318       25.95366
N         59.88788       87.09307       27.28964
O         58.89854       86.20729       25.51151
H         62.54976       88.41442       23.43655
H         62.29973       85.94756       25.02759
H         60.27030       88.17781       24.29699
H         61.44530       88.19669       25.64216
H         60.63464       87.67491       27.69665
H         59.19438       86.67094       27.92462
N         60.27605       84.73105       23.48030
C         59.55849       83.97467       22.45243
C         58.70895       84.90579       21.59838
O         58.68321       84.74312       20.38703
C         58.67640       82.88886       23.10038
C         57.95186       82.05151       22.06835
C         58.67094       81.30837       21.11414
C         56.54773       82.00682       22.05135
C         57.99700       80.54268       20.15852
C         55.87606       81.23633       21.09715
C         56.59955       80.50244       20.14610
O         55.96490       79.75649       19.21946
H         60.11417       84.49679       24.46886
H         60.30301       83.46696       21.80054
H         57.94859       83.37785       23.78542
H         59.31718       82.21531       23.70959
H         59.75315       81.32112       21.10496
H         55.97082       82.56795       22.77567
H         58.56280       79.97917       19.42701
H         54.79374       81.21138       21.09779
H         54.99968       79.69863       19.17819
N         58.04256       85.94693       22.17032
C         57.30781       86.95983       21.42118
C         58.21288       87.62086       20.39485
O         57.87561       87.63143       19.21900
C         56.76658       88.02731       22.40841
C         55.96950       89.14867       21.72447
C         55.51783       90.16550       22.73444
O         56.42696       90.85300       23.45356
O         54.32859       90.38364       22.90008
H         58.10289       86.05115       23.19158
H         56.44578       86.48319       20.90330
H         57.62048       88.48062       22.96024
H         56.10911       87.52736       23.15340
H         55.09083       88.70952       21.20409
H         56.60013       89.67367       20.97573
N         59.36966       88.22271       20.78817
C         60.22216       88.98748       19.88019
C         60.91048       88.11399       18.83388
O         61.51660       88.66999       17.92837
C         61.27194       89.79450       20.68164
C         60.59637       90.74293       21.69474
C         61.58431       91.50803       22.51785
O         61.50911       92.72067       22.57509
O         62.50439       90.86698       23.26071
H         59.61347       88.17273       21.78676
H         59.57474       89.72011       19.34712
H         61.89304       90.39660       19.98315
H         61.93782       89.08620       21.21853
H         59.97755       90.17669       22.41510
H         59.93052       91.45069       21.15259
N         60.87143       86.75110       18.89161
C         61.47837       85.87849       17.90772
H         62.24482       85.24473       18.40110
H         60.69565       85.21740       17.47781
H         61.95737       86.43852       17.07859
H         60.40048       86.28830       19.67344
Ca        63.59546       92.89245       25.46056
O         61.53430       90.75746       26.68245
H         61.56315       91.61203       27.18206
H         60.88052       90.91459       25.95598

Ca 1.0



