%chk=holoCaM.loop3.water3.frame30.chk
%nprocshared=20
%mem=10GB
%nosave
#b3lyp/svp scf=(tight,noincore,xqc) Test 
#IOP(5/87=12) Density=Current Pop=(MK,readradii) iop(6/33=2) iop(6/42=6)

holoCaM.loop3.water3.frame30 

   0  1 
C         73.10718      102.12144       27.57713
C         72.17591      103.29080       27.50021
O         72.18750      104.12971       28.39070
H         73.73509      102.17828       28.49125
H         72.52561      101.17773       27.58621
H         73.77646      102.13155       26.68938
N         71.37029      103.43929       26.41502
C         70.56165      104.62807       26.21570
C         69.32790      104.64279       27.13306
O         68.50055      103.74628       27.05336
C         70.17136      104.75532       24.72860
C         69.59952      106.10656       24.43481
O         69.49413      107.01034       25.42084
O         69.19815      106.37216       23.31800
H         71.43314      102.73944       25.65857
H         71.22225      105.50148       26.42309
H         69.43631      103.96593       24.46028
H         71.07247      104.63360       24.08925
N         69.15300      105.66676       28.01632
C         68.04141      105.81544       28.96251
C         66.67492      105.89094       28.28608
O         65.84025      105.04570       28.57709
C         68.29472      107.08290       29.81877
C         67.23627      107.38666       30.89087
C         67.69443      108.59918       31.72528
C         66.71639      109.00445       32.83893
N         65.46697      109.55484       32.31123
H         69.89401      106.37606       28.03772
H         68.04700      104.93638       29.64512
H         68.36154      107.97016       29.15421
H         69.27890      106.95187       30.32058
H         67.11561      106.50771       31.55995
H         66.26637      107.60036       30.39447
H         67.87376      109.47749       31.06694
H         68.65959      108.33201       32.20931
H         67.20985      109.78966       33.45475
H         66.50648      108.13503       33.49991
H         64.93983      108.83488       31.76963
H         64.87222      109.86869       33.11212
H         65.66917      110.38275       31.70413
N         66.36455      106.89169       27.41011
C         65.03688      107.07203       26.81983
C         64.93686      106.68124       25.35271
O         63.84637      106.78510       24.80420
C         64.45736      108.47669       27.11749
C         65.04948      109.75530       26.54280
O         66.18127      109.86807       25.81203
O         64.42600      110.78332       26.75193
H         67.09536      107.56660       27.19369
H         64.32753      106.36983       27.31201
H         64.41138      108.59967       28.22067
H         63.40565      108.45312       26.75281
N         65.97517      106.11922       24.67743
C         65.82990      105.56896       23.34063
C         65.51320      106.61426       22.30198
O         64.50567      106.48540       21.62167
H         66.88148      105.99146       25.14744
H         65.03873      104.78468       23.34901
H         66.77986      105.07636       23.04367
N         66.37431      107.64833       22.09125
C         66.22676      108.60897       20.99894
C         67.38314      108.50035       20.00440
O         67.33091      109.17571       18.98333
C         66.06391      110.04532       21.54661
C         67.30489      110.60437       22.20580
N         67.87925      111.74347       21.76049
O         67.79210      110.03644       23.16348
H         67.19032      107.72279       22.70970
H         65.29873      108.37815       20.43179
H         65.22754      110.05392       22.27983
H         65.77442      110.71166       20.70582
H         67.48881      112.25852       20.95969
H         68.71802      112.11690       22.22983
N         68.45654      107.68085       20.22524
C         69.56137      107.49789       19.30281
C         70.87291      108.05727       19.82865
O         71.87797      107.86809       19.16645
H         68.51945      107.13543       21.09190
H         69.36384      107.99222       18.32670
H         69.66801      106.40836       19.11083
N         70.92159      108.84194       20.95025
C         72.11197      109.59556       21.34980
C         72.36036      109.46671       22.84012
O         71.43008      109.65226       23.60662
C         71.86387      111.07331       20.99232
C         71.69056      111.21929       19.49708
C         70.44733      111.57990       18.95251
C         72.76942      110.96484       18.63195
C         70.28374      111.67348       17.56712
C         72.60561      111.06501       17.24825
C         71.35968      111.41670       16.71066
O         71.18498      111.50817       15.37697
H         70.05018      109.04670       21.45621
H         73.01803      109.26510       20.79990
H         72.71250      111.71152       21.32194
H         70.95242      111.41843       21.52705
H         69.60007      111.77067       19.59605
H         73.73768      110.68570       19.02848
H         69.31730      111.94068       17.15894
H         73.44626      110.86392       16.59608
H         71.90317      111.33539       14.75141
N         73.61645      109.19509       23.31944
C         73.90665      109.07908       24.74800
C         74.91945      110.15015       25.14602
O         76.04184      110.10468       24.66505
C         74.48737      107.66780       25.08117
C         73.70145      106.53095       24.38112
C         74.51373      107.46726       26.61007
C         74.34126      105.15256       24.57330
H         74.39248      109.07270       22.65416
H         72.96946      109.21501       25.32926
H         75.52646      107.61766       24.68518
H         73.70434      106.71304       23.28504
H         72.64844      106.51695       24.72673
H         75.07154      108.28112       27.11094
H         73.47662      107.45549       27.00658
H         75.01187      106.51927       26.89088
H         75.39727      105.16917       24.22436
H         74.31026      104.83034       25.63255
H         73.78789      104.39973       23.97477
N         74.59704      111.14690       26.02393
C         75.58056      112.13567       26.47533
C         76.64366      111.48816       27.35919
O         76.54162      110.30823       27.64980
C         74.88517      113.28804       27.22881
O         74.23900      112.82700       28.38494
H         73.62899      111.20883       26.36299
H         76.06894      112.58309       25.58217
H         74.16507      113.79735       26.54591
H         75.62204      114.06331       27.52704
H         73.26525      112.80646       28.19392
N         77.70917      112.20439       27.81561
C         78.72669      111.64883       28.70853
C         78.14205      111.33959       30.07839
O         78.29877      110.22584       30.55680
C         79.89148      112.63078       28.86534
H         77.80615      113.18325       27.50436
H         79.15642      110.72449       28.25877
H         80.34793      112.82770       27.87162
H         79.55326      113.59307       29.30289
H         80.67294      112.18924       29.52160
N         77.44128      112.29386       30.75767
C         76.83490      112.09202       32.07529
C         75.90811      110.89088       32.07147
O         76.05199      110.00667       32.90372
C         76.03796      113.34548       32.47128
H         77.30893      113.20656       30.29427
H         77.63262      111.93706       32.83467
H         76.70681      114.23142       32.50315
H         75.22789      113.54886       31.73640
H         75.57901      113.21368       33.47400
N         74.95767      110.79234       31.10873
C         74.02407      109.68197       30.94379
C         74.75886      108.35153       30.87097
O         74.38068      107.42897       31.57906
C         73.20523      109.96298       29.66850
C         72.09501      108.95800       29.34701
C         71.31539      109.39937       28.12725
O         71.57506      110.44218       27.54843
O         70.30181      108.65154       27.67295
H         74.92769      111.55656       30.41871
H         73.32112      109.65454       31.80640
H         73.89574      110.02432       28.79769
H         72.71920      110.95449       29.80989
H         71.39644      108.88205       30.20801
H         72.53755      107.95711       29.16001
N         75.85366      108.20533       30.07691
C         76.63172      106.98748       29.97907
H         77.66137      107.17967       30.35017
H         76.19429      106.15568       30.56882
H         76.69157      106.67549       28.91595
H         76.18269      109.01345       29.54333
Ca        68.00989      108.64555       25.37533
O         67.59423      112.48868       25.27242
H         67.81486      111.97310       26.08774
H         67.73367      113.43288       25.53431
O         70.81499      112.14705       24.93534
H         70.31883      112.95675       24.65685
H         71.66381      112.19121       24.42729
O         68.42992      110.80515       28.43428
H         69.08503      111.19579       29.06580
H         67.54856      110.97300       28.85171

Ca 1.0



