%chk=holoCaM.loop1.water2.frame315.chk
%nprocshared=20
%mem=10GB
%nosave
#b3lyp/svp scf=(tight,noincore,xqc) Test 
#IOP(5/87=12) Density=Current Pop=(MK,readradii) iop(6/33=2) iop(6/42=6)

holoCaM.loop1.water2.frame315 

   0  1 
C         10.83986       14.73294       48.18018
C          9.98553       14.44325       46.97985
O          9.50464       13.32988       46.83179
H         11.85368       15.04359       47.84829
H         10.38714       15.55896       48.76926
H         10.93442       13.83825       48.83047
N          9.75391       15.42912       46.07390
C          8.93928       15.26383       44.87408
C          9.55257       14.23066       43.93788
O         10.72273       14.35762       43.60452
C          8.81276       16.62804       44.16888
C          7.95411       16.55785       42.94371
O          6.68032       16.13288       43.02385
O          8.41012       16.89780       41.86761
H         10.17518       16.35352       46.26182
H          7.91417       14.95096       45.17228
H          9.82336       17.00606       43.89417
H          8.34911       17.35472       44.87095
N          8.79896       13.20085       43.44619
C          9.32357       12.17182       42.54978
C          8.71208       12.24337       41.15015
O          9.04266       11.39180       40.33608
C          9.09275       10.76298       43.14539
C          9.68380       10.61731       44.55790
C          9.74062        9.16247       45.06100
C         10.77546        8.32274       44.28378
N         10.95035        7.00013       44.88115
H          7.80365       13.15004       43.70337
H         10.42083       12.29567       42.41974
H          9.58424       10.04820       42.45672
H          8.00826       10.51418       43.18187
H          9.05590       11.21464       45.25311
H         10.71576       11.02749       44.58736
H          8.73503        8.68817       45.02018
H         10.06308        9.19649       46.12430
H         11.75573        8.84963       44.30141
H         10.46682        8.19817       43.22503
H         11.67311        6.47606       44.33559
H         11.28256        7.09364       45.86858
H         10.05110        6.46806       44.85508
N          7.84254       13.22904       40.78143
C          7.21073       13.30205       39.46274
C          7.59770       14.55860       38.69595
O          7.09347       14.74070       37.59484
C          5.68760       13.34278       39.66175
C          5.13384       12.09808       40.27201
O          4.53686       12.13588       41.47603
O          5.18527       11.04325       39.66070
H          7.59792       13.96527       41.45906
H          7.48540       12.43197       38.82710
H          5.16244       13.49323       38.69339
H          5.46202       14.20460       40.31873
N          8.43974       15.49628       39.21016
C          8.69712       16.76862       38.55503
C          7.49096       17.70511       38.52499
O          7.65737       18.81565       38.04073
H          8.92331       15.31629       40.09906
H          9.07481       16.59118       37.52478
H          9.49381       17.29712       39.12277
N          6.26066       17.36347       39.02470
C          5.12557       18.28820       39.04051
C          5.31392       19.44507       40.02469
O          4.47344       20.33391       40.04129
C          3.79507       17.54789       39.33596
C          3.80391       16.72540       40.59766
O          4.15677       17.26773       41.77371
O          3.48104       15.55007       40.55638
H          6.11021       16.42220       39.40183
H          5.01581       18.72420       38.02269
H          3.56086       16.87097       38.48456
H          2.97343       18.29346       39.39764
N          6.37392       19.50458       40.87827
C          6.59024       20.58235       41.82625
C          5.49660       20.65913       42.86587
O          4.97305       21.73800       43.09162
H          7.07700       18.75727       40.87270
H          6.70358       21.55051       41.29155
H          7.54152       20.38043       42.36626
N          5.17202       19.55050       43.58794
C          4.24312       19.51768       44.72828
C          4.43628       18.22604       45.52981
O          5.08389       17.30368       45.05352
C          2.73341       19.66628       44.35548
C          2.29344       21.02933       43.79928
O          2.32371       18.63163       43.49988
H          5.71721       18.70755       43.35928
H          4.54401       20.33735       45.41751
H          2.15558       19.56242       45.29910
H          2.56453       18.89504       42.57404
H          2.58856       21.84349       44.49425
H          2.70311       21.21615       42.78792
H          1.18744       21.04180       43.69526
N          3.96979       18.12951       46.81051
C          4.28060       16.98985       47.67104
C          2.99829       16.37554       48.21633
O          2.30709       17.01054       49.00075
C          5.26109       17.44928       48.79282
C          6.56310       18.00929       48.14688
C          5.58340       16.29146       49.75060
C          7.57890       18.56765       49.14319
H          3.46280       18.92862       47.22127
H          4.81151       16.20282       47.09116
H          4.77343       18.25911       49.38027
H          6.30488       18.84887       47.46767
H          7.05600       17.21621       47.54117
H          4.66014       15.89241       50.21654
H          6.09676       15.47762       49.20310
H          6.22915       16.63201       50.58365
H          7.97114       17.77675       49.81273
H          8.44272       18.98662       48.58395
H          7.11982       19.37878       49.74638
N          2.62134       15.12683       47.81591
C          1.41911       14.44162       48.29538
C          1.63447       13.85651       49.69203
O          2.72049       13.97758       50.23801
C          1.00514       13.30868       47.30602
C          0.67757       13.84667       45.90519
O          1.96944       12.28469       47.24927
H          3.19556       14.66969       47.09446
H          0.57362       15.16462       48.32129
H          0.06251       12.84362       47.66001
H          2.69530       12.55780       46.63133
H         -0.13188       14.60459       45.96497
H          1.56931       14.31076       45.43792
H          0.33044       13.01477       45.25708
N          0.63589       13.14981       50.30144
C          0.79265       12.41198       51.55951
C          1.91068       11.39052       51.44481
O          2.72288       11.28995       52.35293
C         -0.51500       11.66940       51.94390
C         -1.64417       12.64083       52.29828
O         -0.92162       10.82442       50.89589
H         -0.26898       13.08464       49.81491
H          1.03967       13.11137       52.38979
H         -0.29930       11.06171       52.85567
H         -1.51534       10.13373       51.29054
H         -1.91167       13.28519       51.43654
H         -2.54534       12.06725       52.60291
H         -1.33649       13.28276       53.15089
N          2.01378       10.61072       50.33483
C          3.07667        9.63343       50.11719
C          4.43415       10.32225       50.16584
O          5.27920        9.93676       50.96111
C          2.87495        8.94505       48.74078
C          1.57541        8.11564       48.68838
C          1.27918        7.62848       47.26098
C         -0.04648        6.85169       47.15635
N         -0.00004        5.56947       47.86063
H          1.31646       10.75575       49.59016
H          3.03988        8.85114       50.90800
H          3.72987        8.26886       48.51839
H          2.84389        9.72701       47.95088
H          0.70754        8.72880       49.00579
H          1.67532        7.26437       49.39316
H          2.11359        7.00416       46.87563
H          1.18685        8.52549       46.60859
H         -0.25099        6.65585       46.08047
H         -0.88305        7.47155       47.55090
H          0.13265        5.70914       48.88662
H         -0.90681        5.06991       47.71359
H          0.77340        4.97981       47.47596
N          4.70082       11.35687       49.32426
C          5.98788       12.05069       49.23746
C          6.29440       12.91764       50.45310
O          7.38590       13.46857       50.50476
C          6.00960       12.87693       47.92541
C          5.99562       11.89002       46.74453
C          5.73397       12.45227       45.38750
O          5.42680       13.74196       45.14593
O          5.72713       11.66898       44.45127
H          3.95330       11.63053       48.67218
H          6.80084       11.29274       49.16876
H          6.92283       13.50562       47.84380
H          5.12277       13.54558       47.91136
H          5.19737       11.13241       46.88142
H          6.97044       11.35640       46.73145
N          5.41039       13.08075       51.47560
C          5.71385       13.86758       52.65073
H          5.92626       14.91808       52.36683
H          4.84623       13.85658       53.34536
H          6.59255       13.43833       53.17693
H          4.49062       12.63629       51.43486
Ca         4.74410       13.80590       42.99492
O          1.72985       15.61378       43.11498
H          1.11181       16.27843       43.50992
H          1.15876       14.82621       42.93215
O          2.09787       12.05191       43.32218
H          2.24477       11.60640       44.19392
H          2.22199       11.33298       42.65313

Ca 1.0



