%chk=holoCaM-CaMKII.loop2.water2.frame89.chk
%nprocshared=20
%mem=10GB
%nosave
#b3lyp/svp scf=(tight,noincore,xqc) Test 
#IOP(5/87=12) Density=Current Pop=(MK,readradii) iop(6/33=2) iop(6/42=6)

holoCaM-CaMKII.loop2.water2.frame89 

   -2  1 
C         24.06121       55.91299       77.45020
C         23.42395       56.13167       78.79543
O         22.36864       56.74421       78.86296
H         25.00782       55.33652       77.53726
H         23.36989       55.34059       76.79638
H         24.29060       56.88922       76.97624
N         24.01042       55.63115       79.91639
C         23.44171       55.74752       81.25596
C         23.38628       57.19616       81.71198
O         24.42047       57.84787       81.73856
C         24.27831       54.88341       82.22036
C         23.79591       54.81785       83.64502
O         24.62268       54.85236       84.54207
O         22.50285       54.61794       83.97531
H         24.88912       55.10148       79.80085
H         22.42573       55.31214       81.22654
H         25.34000       55.21871       82.21571
H         24.26986       53.84586       81.83068
N         22.20321       57.75374       82.10849
C         22.06054       59.13254       82.55732
C         21.65551       59.24382       84.02689
O         21.57902       60.36980       84.50096
C         21.00890       59.82566       81.67924
H         21.35328       57.18097       82.08722
H         23.02503       59.67225       82.44667
H         21.30617       59.77724       80.61038
H         20.02159       59.32340       81.79153
H         20.89363       60.89296       81.96428
N         21.35308       58.15855       84.80662
C         20.84756       58.30080       86.17762
C         21.30890       57.21725       87.15602
O         20.94023       57.30544       88.31939
C         19.30498       58.36743       86.14255
C         18.62510       57.12516       85.62109
O         17.40809       57.09818       85.54400
O         19.32926       56.04323       85.24183
H         21.32872       57.23332       84.36271
H         21.20287       59.26654       86.60105
H         19.00774       59.22275       85.49852
H         18.92572       58.56767       87.16808
N         22.07920       56.16019       86.77699
C         22.46214       55.08464       87.67595
C         21.25895       54.36202       88.24733
O         21.13982       54.30355       89.46296
H         22.41733       56.09968       85.81524
H         23.08815       55.49432       88.49898
H         23.07857       54.34648       87.11672
N         20.33595       53.77218       87.43103
C         19.19131       53.00679       87.93174
C         19.24799       51.53773       87.49837
O         18.28855       50.81533       87.73159
C         17.85126       53.67445       87.54240
C         17.47604       53.66500       86.08303
N         16.24503       54.08894       85.72012
O         18.25027       53.26131       85.23042
H         20.46348       53.85327       86.41135
H         19.18695       53.00243       89.04352
H         17.83540       54.72386       87.91082
H         17.04762       53.12278       88.07745
H         15.57245       54.42532       86.42475
H         15.95057       54.05405       84.73786
N         20.36842       51.00973       86.92575
C         20.52509       49.60992       86.55837
C         19.78925       49.16274       85.30335
O         19.97371       48.01111       84.93774
H         21.20545       51.59841       86.83853
H         20.24925       48.96561       87.42148
H         21.60327       49.43809       86.34854
N         18.95972       49.97670       84.58602
C         18.27165       49.54914       83.36218
C         18.54907       50.49249       82.19849
O         19.19592       51.51301       82.38175
C         16.74353       49.47441       83.62267
C         16.40434       48.33916       84.58727
O         16.26159       50.68632       84.14716
H         18.78149       50.92749       84.92511
H         18.62082       48.54430       83.03985
H         16.19387       49.22863       82.68647
H         16.20011       51.32804       83.39244
H         16.74834       47.37057       84.16268
H         16.88553       48.49457       85.57459
H         15.30393       48.28342       84.72707
N         18.01105       50.21956       80.96928
C         18.05176       51.13999       79.83991
C         16.68154       51.78395       79.76381
O         15.70682       51.09111       79.50335
C         18.39076       50.39745       78.50534
C         19.79674       49.75109       78.55695
C         18.26940       51.35023       77.29533
C         20.10830       48.88327       77.32958
H         17.44040       49.36863       80.85998
H         18.80720       51.93440       80.01647
H         17.64001       49.58613       78.37134
H         19.85939       49.08880       79.44608
H         20.57432       50.54011       78.65397
H         17.25473       51.78836       77.23576
H         19.01395       52.16966       77.36293
H         18.40586       50.81232       76.33728
H         19.34758       48.08032       77.22268
H         20.13995       49.47966       76.39549
H         21.10560       48.41156       77.44813
N         16.53004       53.11250       80.02703
C         15.23212       53.77607       79.98463
C         14.76418       53.94091       78.54934
O         15.49738       53.60754       77.62912
C         15.29388       55.16718       80.65599
C         15.66307       55.09932       82.10984
O         14.79352       55.54188       83.03843
O         16.75315       54.67484       82.45786
H         17.36054       53.65247       80.30201
H         14.49523       53.16325       80.55214
H         14.29527       55.64666       80.59656
H         16.01438       55.81896       80.12812
N         13.53872       54.46163       78.28215
C         13.03937       54.69454       76.93357
C         13.90347       55.72828       76.19018
O         14.42074       55.35845       75.14837
C         11.52987       55.02277       76.99915
C         10.88054       55.32553       75.67363
C         10.24251       56.56354       75.48057
C         10.86322       54.37539       74.63819
C          9.59262       56.84374       74.27692
C         10.21182       54.66139       73.43325
C          9.57476       55.89288       73.25437
H         12.92335       54.68467       79.08124
H         13.10542       53.73611       76.36831
H         11.33664       55.84849       77.69961
H         11.01085       54.14447       77.44123
H         10.23715       57.30951       76.26608
H         11.34005       53.41205       74.76550
H          9.09644       57.79611       74.14160
H         10.19302       53.92524       72.64030
H          9.06370       56.10990       72.32554
N         14.14946       57.00824       76.63666
C         15.02005       57.95956       75.93941
C         16.39491       57.40811       75.61589
O         16.91494       57.68713       74.54319
C         15.17364       59.11225       76.94292
C         13.83898       59.09419       77.63533
C         13.63030       57.60011       77.85303
H         14.50649       58.31357       75.01822
H         15.92800       58.85209       77.72167
H         15.46197       60.08289       76.48361
H         13.76637       59.71261       78.55461
H         13.07769       59.45244       76.90271
H         14.21242       57.21539       78.71791
H         12.55228       57.47051       78.00979
N         17.04567       56.62310       76.51647
C         18.38948       56.09626       76.31082
C         18.43615       55.20586       75.08314
O         19.23505       55.46321       74.19460
C         18.87063       55.30257       77.54125
C         18.88518       56.15248       78.82428
C         19.42537       55.39275       79.99720
O         19.35686       55.93161       81.22151
O         19.93319       54.29205       79.86074
H         16.54672       56.39126       77.38771
H         19.09626       56.94637       76.17636
H         19.90342       54.93952       77.33961
H         18.21201       54.42292       77.71115
H         17.86034       56.47228       79.07740
H         19.49918       57.06748       78.68455
N         17.58960       54.14449       74.96905
C         17.56744       53.24501       73.83485
H         16.57406       53.30331       73.34226
H         18.34994       53.48674       73.08634
H         17.72834       52.20565       74.18996
H         16.90838       53.96859       75.71559
Ca        20.59544       54.96701       82.82610
O         21.38867       52.17120       84.35593
H         21.65586       51.25487       84.09956
H         22.10359       52.46351       84.97490
O         21.93806       52.48011       81.50396
H         21.16354       52.25097       80.93478
H         22.71677       52.37031       80.90500

Ca 1.0



