%chk=holoCaM.loop2.water2.frame358.chk
%nprocshared=20
%mem=10GB
%nosave
#b3lyp/svp scf=(tight,noincore,xqc) Test 
#IOP(5/87=12) Density=Current Pop=(MK,readradii) iop(6/33=2) iop(6/42=6)

holoCaM.loop2.water2.frame358 

   -2  1 
C         -0.64255       -6.03404       82.45750
C         -1.52790       -7.23728       82.60436
O         -1.47227       -8.13422       81.77898
H         -0.00352       -6.11396       81.55304
H         -1.26144       -5.11559       82.38881
H          0.01772       -5.95627       83.34889
N         -2.35801       -7.32767       83.67481
C         -3.17392       -8.49746       83.97651
C         -4.25016       -8.76796       82.92917
O         -5.04113       -7.88436       82.63142
C         -3.82163       -8.31572       85.35840
C         -4.56844       -9.54366       85.75813
O         -3.98154      -10.61024       85.81439
O         -5.88467       -9.47924       86.03409
H         -2.35364       -6.54317       84.34627
H         -2.49515       -9.37736       84.05076
H         -4.50457       -7.43921       85.35482
H         -3.02420       -8.14215       86.11340
N         -4.35863      -10.01468       82.38280
C         -5.36382      -10.41939       81.40721
C         -6.21927      -11.59563       81.89445
O         -7.03807      -12.05841       81.11098
C         -4.64221      -10.82158       80.11450
H         -3.68771      -10.73099       82.68051
H         -6.04494       -9.57473       81.16470
H         -4.03880       -9.97011       79.73490
H         -3.96738      -11.68638       80.29503
H         -5.37505      -11.10163       79.32689
N         -6.11067      -12.13360       83.15156
C         -6.87172      -13.32597       83.55749
C         -6.95804      -13.61951       85.06592
O         -7.61635      -14.59410       85.40701
C         -6.34335      -14.56940       82.81092
C         -4.87786      -14.85077       82.98965
O         -4.04100      -14.02680       83.65257
O         -4.41152      -15.83849       82.44560
H         -5.45825      -11.69553       83.80555
H         -7.93504      -13.17627       83.26477
H         -6.50827      -14.45096       81.72059
H         -6.92066      -15.46420       83.12951
N         -6.41888      -12.82284       86.03028
C         -6.64914      -13.02589       87.45141
C         -6.00637      -14.25489       88.05881
O         -6.24957      -14.47082       89.23857
H         -5.91842      -11.97704       85.77613
H         -7.74734      -13.06931       87.62443
H         -6.25971      -12.14720       88.01036
N         -5.18819      -15.10852       87.37059
C         -4.64597      -16.30811       88.01173
C         -3.72486      -16.00863       89.20244
O         -3.46896      -16.92069       89.97555
C         -3.94002      -17.24801       87.00973
C         -2.69375      -16.68980       86.37071
N         -1.88732      -17.51126       85.66600
O         -2.39093      -15.51427       86.49846
H         -4.98707      -14.93323       86.37566
H         -5.52066      -16.87241       88.40613
H         -4.64165      -17.55752       86.20528
H         -3.64573      -18.16132       87.57087
H         -2.11994      -18.50678       85.54311
H         -1.00511      -17.15998       85.28028
N         -3.17573      -14.77502       89.39955
C         -2.35725      -14.41304       90.55126
C         -0.91311      -14.10658       90.19430
O         -0.19322      -13.63776       91.06560
H         -3.34389      -14.04319       88.70278
H         -2.34582      -15.21521       91.32031
H         -2.81839      -13.51506       91.01495
N         -0.39354      -14.41922       88.97359
C          1.01024      -14.25952       88.60334
C          1.14703      -13.48850       87.29013
O          0.14723      -13.06887       86.72040
C          1.65440      -15.67147       88.48909
C          1.68320      -16.38279       89.84576
O          0.95210      -16.46996       87.57062
H         -0.99850      -14.88047       88.28791
H          1.57235      -13.69514       89.38087
H          2.72130      -15.59967       88.18330
H          1.24050      -16.19057       86.66322
H          2.17361      -17.37404       89.74142
H          2.26623      -15.78351       90.57867
H          0.65824      -16.53871       90.24180
N          2.37946      -13.30982       86.73397
C          2.63933      -12.67034       85.44816
C          3.03633      -13.74248       84.44497
O          3.91821      -14.54577       84.72192
C          3.72130      -11.55534       85.61183
C          3.07934      -10.34024       86.33516
C          4.31721      -11.13311       84.24987
C          4.04320       -9.18880       86.62980
H          3.19912      -13.70000       87.22344
H          1.72338      -12.18723       85.04522
H          4.56509      -11.95794       86.21644
H          2.65047      -10.67425       87.30401
H          2.24943       -9.94078       85.71022
H          4.80886      -11.99708       83.75463
H          3.53351      -10.72941       83.57643
H          5.12079      -10.38120       84.37780
H          4.45539       -8.74931       85.69903
H          3.49245       -8.37850       87.15319
H          4.87327       -9.53546       87.27902
N          2.43145      -13.76500       83.22161
C          2.70323      -14.73394       82.16906
C          3.44039      -14.09962       81.00912
O          3.75086      -12.92056       81.05968
C          1.36896      -15.35177       81.70228
C          0.87914      -16.34509       82.70676
O         -0.33327      -16.25653       83.26746
O          1.57073      -17.31536       82.97083
H          1.74959      -13.02373       82.99968
H          3.38717      -15.53572       82.52683
H          1.50152      -15.92473       80.76319
H          0.61880      -14.55374       81.49611
N          3.82390      -14.86699       79.95130
C          4.64952      -14.39847       78.84444
C          4.02378      -13.23132       78.07107
O          4.66642      -12.19293       78.05144
C          5.05965      -15.59882       77.95638
C          5.75302      -15.19733       76.67927
C          6.92167      -14.41839       76.70173
C          5.22258      -15.60615       75.44243
C          7.54266      -14.04973       75.50446
C          5.85055      -15.24216       74.24997
C          7.00868      -14.46244       74.28023
H          3.56694      -15.86743       79.96821
H          5.60081      -14.01107       79.27687
H          4.18150      -16.22406       77.71557
H          5.73023      -16.25643       78.55135
H          7.34716      -14.09099       77.64142
H          4.32414      -16.21014       75.39857
H          8.43856      -13.44378       75.52576
H          5.43733      -15.56489       73.30304
H          7.49183      -14.17895       73.35475
N          2.82047      -13.27883       77.41012
C          2.24379      -12.13274       76.70467
C          2.23889      -10.86383       77.53158
O          2.58870       -9.80331       77.03080
C          0.79180      -12.56727       76.45418
C          0.94791      -14.04869       76.24225
C          1.93101      -14.42038       77.34955
H          2.78239      -11.98450       75.74199
H          0.18589      -12.45433       77.38299
H          0.28270      -12.01263       75.63677
H          0.00552      -14.63595       76.24173
H          1.45530      -14.18551       75.25887
H          1.43755      -14.54079       78.33930
H          2.41125      -15.35760       77.03091
N          1.84833      -10.92809       78.82944
C          1.71780       -9.78539       79.72175
C          3.04451       -9.05869       79.86815
O          3.10248       -7.86927       79.59078
C          1.17625      -10.25524       81.09252
C         -0.20600      -10.93614       80.94821
C         -0.75612      -11.44004       82.24547
O         -0.10564      -11.25077       83.40725
O         -1.80282      -12.06191       82.24000
H          1.63335      -11.86635       79.19491
H          0.97020       -9.07681       79.29867
H          1.08086       -9.37846       81.76977
H          1.89111      -10.97369       81.54886
H         -0.14961      -11.82030       80.28579
H         -0.93052      -10.22908       80.49358
N          4.16190       -9.72022       80.27099
C          5.45167       -9.07921       80.39514
H          6.21407       -9.82696       80.70475
H          5.75813       -8.64994       79.41768
H          5.40623       -8.27820       81.16170
H          4.10502      -10.71993       80.47532
Ca        -1.94319      -14.70944       83.21817
O         -2.57589      -11.79216       87.90233
H         -2.53166      -11.38157       88.80098
H         -3.53401      -12.01217       87.78330
O         -0.65625      -10.19597       86.17163
H         -0.88453       -9.59767       86.92613
H         -0.35423       -9.58416       85.45476

Ca 1.0



