%chk=holoCaM.loop1.water2.frame372.chk
%nprocshared=20
%mem=10GB
%nosave
#b3lyp/svp scf=(tight,noincore,xqc) Test 
#IOP(5/87=12) Density=Current Pop=(MK,readradii) iop(6/33=2) iop(6/42=6)

holoCaM.loop1.water2.frame372 

   0  1 
C         -7.49608       11.57390       84.64249
C         -8.51291       10.86899       85.48826
O         -9.22162       11.51546       86.24653
H         -6.48424       11.17741       84.86973
H         -7.72301       11.39504       83.56972
H         -7.50842       12.66723       84.83432
N         -8.64427        9.51926       85.38915
C         -9.63217        8.75282       86.13761
C         -9.37078        8.86316       87.63899
O         -8.36081        8.36159       88.11321
C         -9.58372        7.29243       85.64823
C        -10.57454        6.37707       86.28288
O        -10.58407        5.20754       85.95233
O        -11.44173        6.81169       87.20923
H         -8.03091        9.02731       84.71936
H        -10.63659        9.16566       85.89357
H         -8.56779        6.87983       85.83079
H         -9.77548        7.28119       84.55196
N        -10.22549        9.57460       88.43102
C         -9.96727        9.85359       89.84420
C        -10.29558        8.69587       90.78190
O         -9.85304        8.74564       91.92122
C        -10.73196       11.12953       90.29313
C        -12.26986       10.97330       90.30289
C        -12.96764       12.31430       90.58691
C        -14.50294       12.22591       90.49390
N        -15.08638       11.41603       91.56331
H        -10.99893       10.06205       87.96160
H         -8.88446       10.09676       89.93873
H        -10.44984       11.95055       89.59708
H        -10.40246       11.42605       91.31369
H        -12.55321       10.22392       91.06791
H        -12.62278       10.61311       89.31772
H        -12.63453       13.04397       89.81924
H        -12.67034       12.71078       91.58115
H        -14.80049       11.81378       89.50695
H        -14.91775       13.25567       90.56365
H        -14.84187       11.82722       92.49314
H        -16.12698       11.41923       91.45839
H        -14.75549       10.42762       91.50929
N        -11.18072        7.71366       90.43421
C        -11.70257        6.73461       91.39384
C        -11.65047        5.28171       90.91122
O        -12.15332        4.42067       91.62024
C        -13.12201        7.16787       91.83149
C        -14.17168        7.23535       90.75487
O        -15.40956        7.65374       91.07890
O        -13.92850        6.92253       89.60184
H        -11.60909        7.75536       89.50152
H        -11.10576        6.75736       92.33193
H        -13.03823        8.18058       92.28313
H        -13.48485        6.48261       92.62711
N        -11.00334        4.91431       89.77027
C        -10.84630        3.52775       89.34696
C        -12.13300        2.88255       88.87796
O        -12.49795        1.82496       89.37029
H        -10.52149        5.63111       89.21224
H        -10.37466        2.93375       90.15981
H        -10.15569        3.50786       88.47580
N        -12.83107        3.45742       87.86572
C        -13.98304        2.86668       87.18511
C        -13.71976        2.73921       85.67999
O        -14.63755        2.39516       84.94748
C        -15.27444        3.66882       87.49884
C        -15.25517        5.15592       87.23642
O        -14.15405        5.77224       86.77213
O        -16.24017        5.82024       87.51411
H        -12.48411        4.36249       87.52850
H        -14.18299        1.83666       87.55600
H        -15.48492        3.54163       88.58299
H        -16.12392        3.21378       86.94256
N        -12.47880        2.96295       85.14894
C        -12.15907        2.88046       83.73208
C        -12.78165        3.97123       82.87386
O        -12.53528        3.95171       81.67764
H        -11.68906        3.14266       85.77750
H        -12.45627        1.88137       83.34663
H        -11.05620        2.97322       83.61442
N        -13.59924        4.93787       83.38736
C        -14.25826        5.95865       82.57169
C        -13.96589        7.36663       83.06508
O        -13.34062        7.54410       84.09678
C        -15.79197        5.69600       82.55042
C        -16.12536        4.59132       81.55158
O        -16.28263        5.30987       83.81069
H        -13.80459        4.94106       84.39183
H        -13.87529        5.93993       81.52819
H        -16.34449        6.59460       82.19804
H        -15.95982        5.96439       84.47505
H        -17.22198        4.41605       81.54255
H        -15.81955        4.90967       80.53107
H        -15.60672        3.64541       81.81076
N        -14.35900        8.42764       82.29445
C        -14.12603        9.83117       82.62236
C        -15.43441       10.61019       82.46177
O        -15.93638       10.71485       81.35165
C        -12.99236       10.37983       81.69458
C        -11.64575        9.70899       82.09112
C        -12.87386       11.91312       81.75805
C        -10.46090       10.07581       81.19751
H        -14.79954        8.22566       81.38455
H        -13.78280        9.93677       83.67571
H        -13.24472       10.11942       80.64202
H        -11.75117        8.60598       82.03723
H        -11.39219        9.97980       83.14106
H        -12.60173       12.23722       82.77630
H        -12.11361       12.28764       81.04481
H        -13.82311       12.39751       81.45511
H        -10.66940        9.78582       80.14664
H        -10.22589       11.15752       81.24900
H         -9.56033        9.52744       81.54752
N        -16.03422       11.19045       83.54379
C        -17.23285       12.03426       83.46113
C        -16.89113       13.42291       82.93075
O        -15.73572       13.70399       82.65265
C        -17.91408       12.16231       84.85460
C        -18.52116       10.82057       85.28519
O        -16.98407       12.64568       85.79367
H        -15.61974       11.01831       84.46921
H        -17.97234       11.56936       82.77111
H        -18.76744       12.86906       84.80370
H        -17.33387       12.46551       86.70445
H        -19.04926       10.92661       86.25586
H        -19.25997       10.47406       84.52980
H        -17.73431       10.06472       85.39639
N        -17.87869       14.35302       82.78020
C        -17.66065       15.71590       82.30193
C        -16.70097       16.47089       83.21670
O        -15.77083       17.07558       82.70385
C        -19.01394       16.45797       82.15984
C        -18.84355       17.81235       81.46053
O        -19.88494       15.67303       81.38354
H        -18.84404       14.07303       83.00618
H        -17.22143       15.65992       81.27989
H        -19.44492       16.60662       83.17864
H        -20.81066       15.90945       81.65401
H        -18.17313       18.48239       82.03592
H        -18.42021       17.66304       80.44264
H        -19.83184       18.30792       81.35465
N        -16.84647       16.46388       84.57705
C        -15.89069       17.11414       85.47823
C        -14.49993       16.51293       85.31163
O        -13.55948       17.25810       85.07440
C        -16.34492       17.00134       86.95820
C        -15.38435       17.68159       87.96739
C        -15.22371       19.19646       87.74020
C        -14.23945       19.81894       88.74153
N        -14.07211       21.25074       88.48577
H        -17.64833       15.95719       84.98365
H        -15.86314       18.19325       85.22152
H        -16.42865       15.92757       87.23671
H        -17.35312       17.45794       87.06518
H        -14.38749       17.19300       87.91347
H        -15.78168       17.51810       88.99353
H        -16.21475       19.69157       87.83578
H        -14.82117       19.38680       86.72559
H        -13.25035       19.31757       88.64434
H        -14.60821       19.66956       89.78036
H        -14.98445       21.74782       88.60518
H        -13.37991       21.64404       89.16366
H        -13.71321       21.40438       87.51493
N        -14.30507       15.16407       85.40388
C        -12.99301       14.51901       85.26023
C        -12.34376       14.78576       83.90425
O        -11.16939       14.47577       83.75726
C        -13.12888       12.98608       85.42114
C        -13.58783       12.56232       86.81759
C        -13.98202       11.11444       86.83279
O        -15.12974       10.80750       87.10126
O        -13.10020       10.14415       86.54813
H        -15.13502       14.57926       85.57753
H        -12.31781       14.92576       86.04626
H        -12.16201       12.47390       85.21208
H        -13.87406       12.64666       84.67093
H        -14.47370       13.15006       87.12990
H        -12.77344       12.74874       87.54622
N        -13.04076       15.32174       82.86414
C        -12.47621       15.60195       81.56246
H        -11.39749       15.35201       81.50493
H        -13.02220       15.01346       80.79563
H        -12.60335       16.68230       81.33862
H        -14.03353       15.52731       82.97700
Ca       -13.83218        8.01484       86.74034
O        -16.50007        8.77580       88.35906
H        -17.47818        8.72642       88.49820
H        -16.17662        9.39230       89.06316
O        -16.31178        8.13911       85.47514
H        -17.21897        7.74430       85.44131
H        -16.16344        8.50493       84.56800

Ca 1.0



