%chk=holoCaM.loop2.water3.frame410.chk
%nprocshared=20
%mem=10GB
%nosave
#b3lyp/svp scf=(tight,noincore,xqc) Test 
#IOP(5/87=12) Density=Current Pop=(MK,readradii) iop(6/33=2) iop(6/42=6)

holoCaM.loop2.water3.frame410 

   -2  1 
C         95.72215       93.14767       19.12578
C         96.80317       93.67963       20.01397
O         96.78972       93.37232       21.19757
H         94.73677       93.52881       19.46322
H         95.88567       93.44530       18.06915
H         95.72526       92.03825       19.18220
N         97.77318       94.49688       19.51418
C         98.89768       94.96179       20.30746
C         98.76177       96.45045       20.59073
O         98.78483       97.26084       19.67534
C        100.19343       94.62472       19.56006
C        101.43331       94.95032       20.32304
O        102.50563       94.75792       19.79114
O        101.39187       95.44056       21.57389
H         97.72280       94.79073       18.52632
H         98.92221       94.41588       21.27678
H        100.21400       95.17996       18.59664
H        100.21897       93.53527       19.33797
N         98.58295       96.85822       21.87627
C         98.39782       98.23716       22.30620
C         99.63104       99.10189       22.07734
O         99.48292      100.17801       21.51615
C         98.02192       98.25812       23.79481
H         98.51856       96.12686       22.59514
H         97.52881       98.67427       21.76482
H         97.81476       99.29700       24.12788
H         97.09811       97.65799       23.95360
H         98.83149       97.82781       24.41988
N        100.87303       98.70861       22.49523
C        102.06673       99.55898       22.40041
C        103.02798       99.14065       21.29117
O        104.07171       99.76708       21.16547
C        102.76415       99.67007       23.77984
C        103.37174       98.39931       24.31382
O        103.86049       98.39343       25.43174
O        103.34965       97.26002       23.60452
H        100.97027       97.76733       22.89750
H        101.76364      100.59629       22.13854
H        102.00909      100.02685       24.51417
H        103.57177      100.43157       23.72681
N        102.71202       98.16736       20.38860
C        103.53180       97.87433       19.22061
C        104.85529       97.17794       19.49142
O        105.58336       96.98000       18.52856
H        101.79939       97.69895       20.45153
H        103.72275       98.82827       18.67993
H        102.95569       97.21886       18.53305
N        105.25231       96.76809       20.73347
C        106.56032       96.14435       20.96765
C        106.73691       94.78998       20.27238
O        107.85991       94.31272       20.19608
C        106.85046       95.99267       22.47544
C        106.01399       94.92014       23.13958
N        106.60895       93.86297       23.73808
O        104.79618       95.00012       23.13788
H        104.63695       96.95322       21.53279
H        107.31477       96.85286       20.55741
H        106.68199       96.96682       22.98377
H        107.92537       95.73782       22.59700
H        107.63422       93.76561       23.75017
H        106.04163       93.13794       24.19660
N        105.66826       94.10688       19.77738
C        105.73917       92.84942       19.05392
C        104.95004       91.72375       19.70288
O        104.79555       90.70489       19.04316
H        104.74186       94.50955       19.89524
H        106.78585       92.50822       18.90369
H        105.30051       93.03479       18.04974
N        104.47058       91.78446       20.98439
C        103.75721       90.66752       21.61874
C        102.47043       91.12350       22.29416
O        102.19576       92.31644       22.33337
C        104.67326       89.98130       22.66314
C        105.92513       89.38779       22.01061
O        105.04271       90.90470       23.65216
H        104.68157       92.61406       21.55922
H        103.47597       89.90442       20.85981
H        104.11156       89.14132       23.13131
H        105.38853       90.38387       24.42331
H        106.53752       88.86985       22.77847
H        105.63440       88.64621       21.23629
H        106.54482       90.18141       21.54377
N        101.64154       90.20111       22.87424
C        100.45939       90.54852       23.65546
C        100.60839       90.00248       25.07231
O        100.64756       88.79619       25.26829
C         99.13356       90.08146       22.96625
C         99.05129       88.54310       22.74216
C         98.95056       90.85761       21.64976
C         97.75698       88.07335       22.07589
H        101.87658       89.20140       22.78515
H        100.38062       91.65561       23.73938
H         98.28963       90.37590       23.63077
H         99.08672       88.02392       23.71822
H         99.90250       88.19341       22.12227
H         97.95522       90.65963       21.20281
H         98.99543       91.94950       21.84454
H         99.73989       90.59090       20.91690
H         96.87499       88.40458       22.66094
H         97.67868       88.45099       21.03683
H         97.75393       86.96352       22.02552
N        100.71195       90.85970       26.12352
C        100.73545       90.43446       27.52373
C         99.34053       89.88992       27.88738
O         98.47324       89.90791       27.03037
C        101.13467       91.66073       28.39084
C        101.60825       91.38521       29.79674
O        101.87178       92.32723       30.52653
O        101.86230       90.13630       30.22993
H        100.76682       91.86015       25.91149
H        101.52415       89.65842       27.63712
H        100.29157       92.38246       28.39572
H        101.99912       92.16951       27.91135
N         99.03283       89.39278       29.11780
C         97.70655       88.88324       29.46808
C         96.60965       89.94644       29.33033
O         95.62396       89.63434       28.67613
C         97.73410       88.24062       30.87601
C         96.40340       87.66488       31.30594
C         95.77244       86.65550       30.55564
C         95.78867       88.12590       32.48382
C         94.54927       86.12331       30.97709
C         94.56903       87.58754       32.90304
C         93.94927       86.58758       32.15041
H         99.76016       89.34613       29.83407
H         97.46192       88.05451       28.76603
H         98.07963       88.97109       31.62839
H         98.48074       87.41707       30.86953
H         96.22396       86.27687       29.64800
H         96.25516       88.89809       33.08290
H         94.06768       85.34741       30.39603
H         94.10607       87.94456       33.81392
H         93.00544       86.17125       32.47805
N         96.67302       91.20464       29.87999
C         95.62589       92.21794       29.73572
C         95.17399       92.40426       28.29707
O         93.98516       92.36886       28.01611
C         96.29906       93.50737       30.23744
C         97.23651       92.97825       31.29331
C         97.80389       91.73811       30.61387
H         94.76912       91.94213       30.39019
H         96.95381       93.94098       29.44725
H         95.59349       94.29841       30.56908
H         98.00481       93.69637       31.65175
H         96.61588       92.64932       32.15707
H         98.59886       91.99774       29.88678
H         98.20181       91.07528       31.39874
N         96.11505       92.57296       27.33283
C         95.85517       92.74122       25.90514
C         95.06211       91.56491       25.36817
O         94.01400       91.78552       24.77721
C         97.21808       92.90967       25.19300
C         97.83579       94.25859       25.61128
C         99.30320       94.34258       25.35294
O         99.74575       95.06974       24.32550
O        100.08237       94.05947       26.24671
H         97.09822       92.54510       27.64476
H         95.25817       93.66476       25.72540
H         97.12190       92.89332       24.08508
H         97.87394       92.06266       25.49195
H         97.71368       94.45887       26.69620
H         97.29663       95.08122       25.09187
N         95.47172       90.28688       25.58716
C         94.72663       89.11793       25.16852
H         93.81168       89.37898       24.59713
H         95.37124       88.47690       24.53531
H         94.42397       88.53960       26.06745
H         96.33380       90.12667       26.11470
Ca       101.87524       95.73909       24.29504
O        100.75739       97.28431       26.42922
H        100.87717       98.24762       26.23633
H         99.83219       97.20734       26.77182
O        103.77936       95.49306       26.68752
H        103.93879       94.81406       27.38984
H        103.29351       96.21959       27.15216
O        103.23128       92.70634       25.53977
H        104.07604       92.56045       26.03467
H        103.51543       92.95147       24.62482

Ca 1.0



