%chk=holoCaM.loop4.water3.frame63.chk
%nprocshared=20
%mem=10GB
%nosave
#b3lyp/svp scf=(tight,noincore,xqc) Test 
#IOP(5/87=12) Density=Current Pop=(MK,readradii) iop(6/33=2) iop(6/42=6)

holoCaM.loop4.water3.frame63 

   -3  1 
C         91.01863      -12.45881       22.36551
C         89.89979      -11.86295       23.16180
O         88.75684      -12.17083       22.85077
H         92.00728      -12.12001       22.73226
H         90.96094      -13.56502       22.45305
H         90.90935      -12.20345       21.29415
N         90.13332      -11.02056       24.21822
C         89.03846      -10.57038       25.07030
C         89.45794       -9.52835       26.11874
O         90.42505       -9.73395       26.83784
C         88.43796      -11.78787       25.81974
C         87.09519      -11.49506       26.41643
O         86.51297      -10.45638       26.15501
O         86.48852      -12.42495       27.17618
H         91.09893      -10.72785       24.42957
H         88.26148      -10.12983       24.40581
H         89.15102      -12.11510       26.60680
H         88.26775      -12.65154       25.14948
N         88.65543       -8.44671       26.33058
C         88.80539       -7.44107       27.38570
C         87.65484       -7.56418       28.39578
O         87.91365       -7.47775       29.58808
C         88.78860       -5.99869       26.76659
C         89.96332       -5.80135       25.77540
C         88.81152       -4.90321       27.85910
C         89.88156       -4.48794       24.98277
H         87.83620       -8.36591       25.72463
H         89.76631       -7.56693       27.93399
H         87.83604       -5.87518       26.21642
H         89.95653       -6.62668       25.03667
H         90.93141       -5.84485       26.31940
H         88.71818       -3.89005       27.42006
H         87.94459       -4.99975       28.54480
H         89.74758       -4.95675       28.45298
H         90.71588       -4.44159       24.25189
H         88.92287       -4.42963       24.42395
H         89.96903       -3.59901       25.63854
N         86.35727       -7.67899       27.98030
C         85.18670       -7.43290       28.83270
C         84.32787       -8.64223       29.19326
O         83.41074       -8.47086       29.98584
C         84.30045       -6.38659       28.11471
C         83.76890       -6.84427       26.75673
O         84.01250       -8.09037       26.27242
O         83.12432       -6.05988       26.08174
H         86.19847       -7.81777       26.97968
H         85.53021       -7.01510       29.80514
H         84.91642       -5.47442       27.95553
H         83.44261       -6.10530       28.76353
N         84.53325       -9.87652       28.66776
C         83.73399      -11.04511       29.01008
C         82.25780      -10.98138       28.63167
O         81.56903      -11.94162       28.94791
H         85.31620      -10.00815       28.03094
H         83.80895      -11.21120       30.10683
H         84.16683      -11.93532       28.50561
N         81.67658       -9.91684       27.99501
C         80.23233       -9.84890       27.75540
C         79.71291      -10.89760       26.77183
O         78.50140      -11.03175       26.66822
C         79.78811       -8.42225       27.34663
C         80.32320       -7.92774       26.03134
O         81.12818       -8.69114       25.27994
O         80.02275       -6.81252       25.63813
H         82.24854       -9.10405       27.74363
H         79.74074      -10.04573       28.73440
H         80.11478       -7.71360       28.13814
H         78.67836       -8.39250       27.29656
N         80.55022      -11.67876       26.02949
C         80.09243      -12.76080       25.17126
C         80.45927      -12.57852       23.71526
O         80.24849      -13.52233       22.96610
H         81.56562      -11.53429       26.09106
H         78.99193      -12.90860       25.22895
H         80.57143      -13.69461       25.53614
N         80.96096      -11.40653       23.21935
C         81.29799      -11.22487       21.81346
C         82.74595      -10.69365       21.66136
O         82.79200       -9.33693       22.03373
C         80.29399      -10.27041       21.12728
C         78.86493      -10.82821       21.12309
C         77.93099       -9.90330       20.38562
N         77.71162       -8.64207       20.82608
O         77.36285      -10.29897       19.37866
H         81.07016      -10.59964       23.84129
H         81.24050      -12.20188       21.28440
H         80.60355      -10.12480       20.06844
H         80.31052       -9.28268       21.63603
H         78.49610      -10.96316       22.16188
H         78.87074      -11.82052       20.61927
H         78.17296       -8.29069       21.67752
H         77.07373       -8.01388       20.31535
N         83.13738      -10.80526       20.24641
C         84.51522      -10.37729       19.94826
C         84.41938       -9.09135       19.14804
O         83.70369       -9.04029       18.15791
C         85.32735      -11.46619       19.17973
C         86.75617      -10.97197       18.87746
C         85.43895      -12.77183       19.99147
H         82.90047      -11.73563       19.83461
H         85.07871      -10.18429       20.88897
H         84.82015      -11.69131       18.21575
H         87.32703      -11.74998       18.32755
H         86.74006      -10.06318       18.24332
H         87.29842      -10.73843       19.82034
H         84.44904      -13.22032       20.20484
H         86.01936      -13.52682       19.41946
H         85.95657      -12.59080       20.95645
N         85.16096       -8.01912       19.52274
C         85.16134       -6.71958       18.86879
C         86.47936       -6.55509       18.12824
O         87.32205       -7.43683       18.19537
C         84.93108       -5.65877       19.98177
C         85.00806       -4.20604       19.58322
N         84.15764       -3.67850       18.67572
O         85.83992       -3.48566       20.11577
H         85.81837       -8.14589       20.29619
H         84.35178       -6.65787       18.11001
H         85.68760       -5.82082       20.77678
H         83.93302       -5.83910       20.43408
H         83.44117       -4.26161       18.22254
H         84.22199       -2.67974       18.42729
N         86.69020       -5.47876       17.32532
C         87.93504       -5.25647       16.59490
C         89.09960       -4.94566       17.52581
O         90.19841       -5.40554       17.24203
C         87.73847       -4.23809       15.44854
C         87.07003       -2.94397       15.85087
C         87.71710       -1.99795       16.65874
C         85.75954       -2.68342       15.40567
C         87.05996       -0.81683       17.02218
C         85.10485       -1.50865       15.77310
C         85.74964       -0.57133       16.58249
O         85.10132        0.55825       16.92898
H         85.91425       -4.81998       17.19529
H         88.20153       -6.19816       16.06096
H         87.07368       -4.75010       14.71654
H         88.69512       -4.04282       14.91781
H         88.72784       -2.16849       17.00263
H         85.23409       -3.39766       14.78270
H         87.56915       -0.09388       17.64578
H         84.09324       -1.33080       15.42942
H         85.50833        1.23442       17.48816
N         88.94276       -4.23700       18.68589
C         90.04033       -4.04731       19.63743
C         90.45014       -5.35693       20.31635
O         91.42237       -5.35012       21.05331
C         89.66294       -3.06351       20.77043
C         89.32016       -1.65486       20.27321
C         89.06926       -0.73665       21.43676
O         89.95397       -0.51788       22.25004
O         87.86935       -0.14457       21.58555
H         88.01747       -3.83926       18.89683
H         90.91323       -3.62790       19.08793
H         90.53613       -2.97534       21.45624
H         88.80532       -3.47042       21.35307
H         88.41383       -1.69033       19.63514
H         90.16308       -1.24788       19.67489
N         89.71560       -6.49789       20.16000
C         89.96371       -7.73626       20.88501
C         90.30618       -8.87511       19.93421
O         90.57442       -9.96430       20.42090
C         88.69240       -8.11894       21.68921
C         88.05829       -6.92413       22.42816
C         86.79409       -7.28526       23.16156
O         85.88928       -7.86971       22.59606
O         86.60366       -6.87374       24.42226
H         88.89501       -6.48229       19.56170
H         90.81055       -7.59787       21.59059
H         88.93327       -8.94477       22.39186
H         87.93263       -8.49324       20.97280
H         87.77831       -6.15679       21.68013
H         88.78496       -6.46564       23.12118
N         90.29786       -8.73015       18.57830
C         90.57017       -9.83220       17.68167
H         91.59527      -10.22150       17.85406
H         89.82924      -10.64418       17.84522
H         90.48883       -9.49192       16.62689
H         90.07388       -7.82393       18.14616
Ca        83.60170       -8.79427       24.13019
O         83.82282      -12.47760       25.32019
H         83.57750      -13.08797       26.05951
H         84.13951      -11.65573       25.77234
O         85.52120      -11.28947       23.30691
H         85.90150      -12.18458       23.49236
H         86.28662      -10.75676       22.97640
O         82.84573       -6.19112       22.86392
H         82.78655       -5.44665       23.51303
H         82.04357       -6.74278       23.04449

Ca 1.0



