%chk=holoCaM.loop4.water3.frame284.chk
%nprocshared=20
%mem=10GB
%nosave
#b3lyp/svp scf=(tight,noincore,xqc) Test 
#IOP(5/87=12) Density=Current Pop=(MK,readradii) iop(6/33=2) iop(6/42=6)

holoCaM.loop4.water3.frame284 

   -3  1 
C         41.60663       67.49899       83.19756
C         43.08354       67.34752       82.99570
O         43.71229       68.29432       82.54572
H         41.06498       66.73726       82.60070
H         41.36401       67.37287       84.27320
H         41.27059       68.50942       82.87529
N         43.71522       66.18586       83.33611
C         45.16152       66.02652       83.24088
C         45.54024       64.59374       82.87309
O         45.15766       63.69448       83.60987
C         45.77871       66.38469       84.60877
C         47.27299       66.51834       84.55238
O         47.96304       66.78133       85.67718
O         47.86359       66.44172       83.48890
H         43.16077       65.44513       83.79238
H         45.56232       66.73654       82.48670
H         45.49311       65.61740       85.36000
H         45.38166       67.35991       84.95968
N         46.31410       64.30380       81.77874
C         46.72993       62.93296       81.44498
C         48.25899       62.73236       81.42956
O         48.67251       61.58816       81.30200
C         46.08203       62.46667       80.10010
C         46.62659       63.25385       78.87711
C         44.54522       62.55049       80.19958
C         46.08450       62.76284       77.53076
H         46.60430       65.07680       81.16403
H         46.35797       62.23863       82.22972
H         46.34489       61.39454       79.95528
H         47.73099       63.14066       78.84120
H         46.39233       64.33036       78.97327
H         44.20897       63.60319       80.30761
H         44.05698       62.11411       79.30498
H         44.18570       61.97113       81.07598
H         46.30627       61.68335       77.39238
H         44.99140       62.93002       77.44702
H         46.56836       63.33152       76.70847
N         49.15197       63.76978       81.49800
C         50.61455       63.60106       81.35612
C         51.45474       64.43248       82.34899
O         52.67188       64.32179       82.30065
C         51.02359       63.95534       79.90194
C         50.71030       65.38090       79.55587
O         50.25295       66.18890       80.52279
O         50.79663       65.77875       78.40606
H         48.76428       64.71796       81.52114
H         50.88280       62.53251       81.50531
H         50.44144       63.29772       79.21948
H         52.10366       63.76191       79.72629
N         50.89684       65.28741       83.25671
C         51.66100       66.07257       84.22365
C         52.51738       67.21697       83.67120
O         53.23886       67.80099       84.46693
H         49.87999       65.33263       83.32692
H         52.31280       65.37359       84.78989
H         50.95558       66.52732       84.95269
N         52.51397       67.60575       82.36104
C         53.42709       68.61773       81.81383
C         53.27043       70.01515       82.41760
O         54.19124       70.80779       82.28088
C         53.32221       68.69699       80.27101
C         52.08352       69.41951       79.81029
O         50.87141       69.01396       80.21408
O         52.17703       70.40498       79.09574
H         51.90396       67.11197       81.71617
H         54.44814       68.24830       82.05462
H         53.33644       67.66801       79.84877
H         54.20531       69.23791       79.86734
N         52.12792       70.39806       83.05679
C         51.95752       71.68399       83.72257
C         50.81679       72.52626       83.17631
O         50.45576       73.48454       83.84644
H         51.34534       69.73654       83.10772
H         52.88295       72.29913       83.70394
H         51.73399       71.45865       84.78695
N         50.23047       72.28309       81.96776
C         49.12291       73.07931       81.42886
C         47.95349       72.18074       81.05346
O         48.06002       70.96940       81.19656
C         49.60955       73.88673       80.20454
C         50.60782       74.98168       80.61561
C         51.06411       75.78517       79.42609
N         51.77895       75.20497       78.43478
O         50.79653       76.97611       79.36222
H         50.60161       71.52237       81.37930
H         48.73987       73.80125       82.18462
H         48.75401       74.40639       79.72354
H         50.05474       73.19449       79.45754
H         51.49745       74.54267       81.11312
H         50.10198       75.66095       81.33911
H         52.02764       74.20633       78.48023
H         52.09556       75.75875       77.62518
N         46.80238       72.71427       80.54390
C         45.64207       71.92046       80.15220
C         45.54285       71.93402       78.63649
O         45.43094       72.99920       78.04375
C         44.34229       72.46684       80.80876
C         43.12086       71.61607       80.41269
C         44.44835       72.49978       82.34047
H         46.74711       73.73405       80.39714
H         45.76950       70.86899       80.48871
H         44.17480       73.50964       80.45846
H         42.97446       71.61717       79.31352
H         43.24835       70.56541       80.75250
H         42.19712       72.02734       80.87226
H         44.57623       71.47699       82.74670
H         45.30101       73.13170       82.66588
H         43.52178       72.93047       82.77725
N         45.59544       70.76155       77.94784
C         45.58885       70.65948       76.49094
C         44.14625       70.56484       75.99512
O         43.24332       70.56045       76.81722
C         46.41862       69.40035       76.12764
C         46.96101       69.25862       74.72695
N         47.65029       68.14062       74.40038
O         46.83771       70.14857       73.90151
H         45.69048       69.89109       78.48821
H         46.10014       71.55281       76.06930
H         45.83158       68.49774       76.40029
H         47.32396       69.41608       76.75822
H         47.78626       67.38723       75.09141
H         48.05122       68.02597       73.45815
N         43.84172       70.49048       74.66986
C         42.48107       70.33597       74.16592
C         41.88616       69.00567       74.60466
O         40.82189       69.00468       75.20826
C         42.47449       70.42039       72.62433
C         41.08120       70.24452       72.07151
C         40.06604       71.16360       72.38659
C         40.78254       69.14418       71.25182
C         38.77165       70.97989       71.89410
C         39.48749       68.96201       70.76146
C         38.47657       69.87936       71.08283
O         37.22150       69.71241       70.62085
H         44.59665       70.55739       73.98270
H         41.85805       71.17124       74.55623
H         43.14942       69.63569       72.21696
H         42.87544       71.40467       72.29888
H         40.27404       72.01927       73.01663
H         41.54851       68.42066       71.00069
H         37.99682       71.69231       72.14744
H         39.27117       68.10537       70.13611
H         36.97614       68.96167       70.06162
N         42.52177       67.83003       74.31907
C         41.99077       66.50691       74.66497
C         41.82608       66.26427       76.16838
O         41.35712       65.19507       76.53366
C         42.85294       65.39310       74.02046
C         44.28917       65.29885       74.56663
C         45.05285       64.22851       73.83837
O         46.05971       64.51247       73.20903
O         44.62999       62.94996       73.87381
H         43.40461       67.88647       73.79093
H         40.98116       66.42338       74.20513
H         42.89052       65.57849       72.92370
H         42.34781       64.41349       74.17549
H         44.27260       65.05166       75.64926
H         44.81644       66.26729       74.43849
N         42.14465       67.21281       77.09160
C         41.97298       67.05936       78.52634
C         40.79902       67.88496       79.00101
O         39.95104       67.35744       79.70676
C         43.22459       67.55747       79.24079
C         44.47059       66.80418       78.80903
C         45.67876       67.33715       79.49203
O         46.86120       66.86940       79.11472
O         45.62037       68.19981       80.35503
H         42.52916       68.10961       76.78486
H         41.80508       65.99541       78.80980
H         43.08208       67.43029       80.32766
H         43.37841       68.63903       79.02095
H         44.62374       66.92844       77.71727
H         44.37335       65.72160       79.03385
N         40.68312       69.19553       78.65188
C         39.60040       70.02988       79.11286
H         38.62528       69.57959       78.83284
H         39.66493       70.14407       80.21495
H         39.67831       71.03445       78.64422
H         41.37584       69.62064       78.02551
Ca        48.60041       67.56944       80.23003
O         46.41582       69.72745       82.96665
H         46.63464       70.46800       83.58604
H         45.97381       69.05677       83.53761
O         49.05235       69.09061       83.75243
H         49.61757       68.54155       84.35065
H         49.06601       69.99295       84.15909
O         49.28732       68.66070       77.85524
H         49.20885       67.71558       77.57089
H         50.15009       68.96998       77.48861

Ca 1.0



