%chk=holoCaM.loop4.water3.frame115.chk
%nprocshared=20
%mem=10GB
%nosave
#b3lyp/svp scf=(tight,noincore,xqc) Test 
#IOP(5/87=12) Density=Current Pop=(MK,readradii) iop(6/33=2) iop(6/42=6)

holoCaM.loop4.water3.frame115 

   -3  1 
C         69.73092       28.49800       10.45617
C         68.79847       27.32192       10.47304
O         69.27057       26.20916       10.64381
H         70.48057       28.38377        9.64816
H         69.18196       29.45253       10.31552
H         70.25813       28.54916       11.43474
N         67.45039       27.50483       10.37681
C         66.48265       26.44542       10.63167
C         65.30913       26.48905        9.66231
O         64.74099       27.55376        9.46253
C         65.99118       26.63411       12.07310
C         64.96614       25.61417       12.44783
O         65.20881       24.42528       12.32174
O         63.76567       26.01401       12.90616
H         67.09443       28.47004       10.29876
H         66.96101       25.44099       10.58625
H         65.56488       27.65099       12.21122
H         66.86177       26.53077       12.75593
N         64.83035       25.33235        9.10972
C         63.67137       25.27548        8.21995
C         62.47429       24.57026        8.87881
O         61.36095       24.88455        8.47943
C         64.06802       24.57440        6.87639
C         65.29452       25.23089        6.18513
C         62.89400       24.46732        5.87937
C         65.09094       26.67195        5.71213
H         65.29971       24.44551        9.34403
H         63.32583       26.30551        7.98322
H         64.37352       23.53262        7.12341
H         65.57495       24.61601        5.30077
H         66.15787       25.21940        6.87900
H         62.06713       23.85753        6.29570
H         62.49261       25.46760        5.61558
H         63.22618       23.95781        4.94892
H         64.86492       27.34183        6.56526
H         66.02633       27.02880        5.23067
H         64.27945       26.73836        4.95938
N         62.60364       23.55223        9.79235
C         61.45715       22.73317       10.22406
C         61.25151       22.60320       11.74294
O         60.30755       21.92784       12.13030
C         61.54388       21.35278        9.53420
C         62.71486       20.50526        9.93427
O         63.57527       20.92085       10.87027
O         62.88306       19.41708        9.40980
H         63.54588       23.27171       10.09346
H         60.51322       23.17947        9.84352
H         61.60178       21.52428        8.43701
H         60.61761       20.77688        9.74316
N         62.02802       23.24615       12.66057
C         61.74233       23.23287       14.09728
C         62.05321       21.93465       14.83540
O         61.77574       21.87704       16.02534
H         62.77985       23.85338       12.32423
H         60.67637       23.50803       14.25179
H         62.35740       24.01763       14.58993
N         62.66935       20.87856       14.23420
C         63.06195       19.63685       14.92346
C         64.13212       19.80730       16.01862
O         64.49619       18.80767       16.62306
C         63.55228       18.59816       13.88618
C         64.72079       19.06787       13.06072
O         65.26301       20.28557       13.26540
O         65.11179       18.37934       12.13369
H         62.85709       20.95667       13.22889
H         62.15671       19.20358       15.40373
H         62.71067       18.39995       13.18590
H         63.80750       17.63793       14.38426
N         64.65733       21.01864       16.35714
C         65.60196       21.21875       17.44666
C         67.04985       20.88888       17.12711
O         67.87282       21.12951       18.00127
H         64.30717       21.86388       15.90297
H         65.25448       20.67691       18.35367
H         65.59814       22.30213       17.69661
N         67.46284       20.37731       15.92905
C         68.87266       20.14246       15.60197
C         69.27296       20.89190       14.33472
O         68.42117       21.51876       13.71718
C         69.13136       18.63641       15.40254
C         68.75090       17.79906       16.62950
C         69.14761       16.36090       16.41485
N         68.21576       15.38226       16.35641
O         70.32984       16.07677       16.28770
H         66.76152       20.14239       15.21522
H         69.53023       20.49690       16.42681
H         70.21337       18.48576       15.20091
H         68.55643       18.26844       14.52373
H         67.65480       17.87905       16.79606
H         69.27041       18.17805       17.53643
H         67.21310       15.59857       16.44967
H         68.49946       14.40299       16.20366
N         70.55770       20.84012       13.86979
C         71.00340       21.45260       12.61978
C         71.44254       20.35771       11.65641
O         72.37302       19.61916       11.95364
C         72.14562       22.47690       12.87558
C         72.75448       22.99518       11.55811
C         71.62778       23.67609       13.68300
H         71.25975       20.31266       14.41256
H         70.16876       22.00906       12.14380
H         72.95875       21.98156       13.45162
H         73.22468       22.16546       10.99247
H         71.97854       23.47022       10.91991
H         73.55645       23.73476       11.76524
H         70.84579       24.21524       13.10895
H         71.20210       23.35107       14.65431
H         72.45484       24.38966       13.88572
N         70.79633       20.21326       10.46549
C         71.14574       19.23303        9.43992
C         72.33998       19.72049        8.62689
O         72.75186       20.85717        8.79963
C         69.89368       19.02451        8.55478
C         70.01299       18.02054        7.44116
N         70.28904       16.72298        7.69958
O         69.82410       18.37938        6.28853
H         69.99886       20.83444       10.27876
H         71.39488       18.27059        9.93837
H         69.59733       20.00529        8.12229
H         69.07732       18.67938        9.21849
H         70.43470       16.39631        8.66512
H         70.35075       16.04291        6.92764
N         72.97494       18.89972        7.73921
C         74.14779       19.33001        6.97534
C         73.78911       20.22075        5.78124
O         74.70021       20.73238        5.14614
C         74.99617       18.10540        6.56182
C         74.36600       17.25518        5.48624
C         74.48260       17.63521        4.13871
C         73.68475       16.07013        5.80749
C         73.92104       16.85187        3.13073
C         73.11096       15.29248        4.79630
C         73.22686       15.67985        3.45628
O         72.67226       14.91997        2.49130
H         72.67326       17.91775        7.68351
H         74.79905       19.90705        7.67013
H         75.17045       17.49846        7.47844
H         76.00312       18.42267        6.21219
H         75.01965       18.53281        3.86322
H         73.58724       15.75385        6.83865
H         74.02492       17.16095        2.09834
H         72.57750       14.38693        5.05485
H         72.73320       15.15732        1.55475
N         72.49123       20.45902        5.42607
C         72.08143       21.32554        4.32146
C         71.55099       22.62728        4.87915
O         71.95429       23.67475        4.39238
C         71.03477       20.64968        3.41587
C         71.60453       19.41603        2.70456
C         70.62970       18.85948        1.70618
O         70.25575       19.54295        0.76544
O         70.18490       17.59456        1.82651
H         71.74205       20.03884        5.98783
H         72.94922       21.58708        3.67423
H         70.73434       21.38937        2.63996
H         70.12962       20.36991        3.99948
H         71.84808       18.64152        3.46013
H         72.53281       19.69203        2.15797
N         70.75264       22.64358        5.98622
C         70.41787       23.86878        6.70728
C         71.68389       24.66199        6.97904
O         71.74446       25.82639        6.61032
C         69.76672       23.53511        8.06002
C         68.37062       22.91079        7.94217
C         67.82917       22.56639        9.29867
O         68.49243       22.74225       10.30458
O         66.60482       22.04872        9.42638
H         70.46880       21.74452        6.39886
H         69.72267       24.49695        6.10657
H         69.65994       24.47228        8.64890
H         70.43703       22.84449        8.62129
H         68.39074       21.98483        7.33239
H         67.69048       23.63650        7.45628
N         72.75241       24.06594        7.57709
C         74.01568       24.72841        7.81616
H         74.81312       24.19852        7.25272
H         74.00402       25.78956        7.49219
H         74.25214       24.68664        8.89910
H         72.68412       23.07748        7.84684
Ca        66.06471       21.44288       11.51962
O         68.09923       24.14973       12.88830
H         68.66655       24.31943       12.10082
H         68.45911       24.75929       13.57828
O         65.97759       23.14704       14.61604
H         65.09051       23.58264       14.67922
H         66.59973       23.81012       15.00345
O         66.69420       19.18346        9.57978
H         65.71044       19.24427        9.65844
H         67.02101       19.09470       10.51090

Ca 1.0



