%chk=holoCaM-CaMKII.loop3.water2.frame365.chk
%nprocshared=20
%mem=10GB
%nosave
#b3lyp/svp scf=(tight,noincore,xqc) Test 
#IOP(5/87=12) Density=Current Pop=(MK,readradii) iop(6/33=2) iop(6/42=6)

holoCaM-CaMKII.loop3.water2.frame365 

   0  1 
C         62.68452       79.82336       25.46851
C         63.55287       80.24998       24.31947
O         64.70755       80.58369       24.53167
H         61.67037       79.52835       25.12015
H         63.14154       78.95456       25.98380
H         62.57052       80.66454       26.18346
N         63.03541       80.28840       23.06552
C         63.75329       80.71090       21.87361
C         63.11095       82.01969       21.45397
O         62.41587       82.07876       20.45206
C         63.64889       79.54860       20.85753
C         64.29548       79.73764       19.51551
O         63.61947       79.62187       18.50711
O         65.62699       79.85232       19.38950
H         62.04281       80.03290       22.94018
H         64.83142       80.90725       22.07307
H         62.57494       79.31746       20.69384
H         64.12288       78.65150       21.30909
N         63.25744       83.10897       22.26805
C         62.58374       84.39241       22.06155
C         62.96897       85.12149       20.77544
O         62.30712       86.10176       20.46203
C         62.79390       85.32723       23.28385
C         64.26657       85.72145       23.53711
C         64.38182       86.66051       24.74971
C         65.83501       86.99202       25.13912
N         66.56423       87.68749       24.07792
H         63.82299       82.98126       23.11982
H         61.49423       84.17344       22.00033
H         62.40190       84.81436       24.19009
H         62.19292       86.25162       23.13648
H         64.67301       86.22549       22.63588
H         64.87097       84.81552       23.74196
H         63.91312       86.16671       25.62926
H         63.82826       87.60241       24.54440
H         66.37543       86.06147       25.41154
H         65.81009       87.64061       26.04305
H         66.69109       87.06543       23.24830
H         66.05768       88.55961       23.80262
H         67.51255       87.94618       24.43529
N         64.01734       84.72963       19.99513
C         64.38587       85.39152       18.73919
C         64.28555       84.44690       17.53432
O         64.51556       84.89971       16.42155
C         65.75469       86.10635       18.87308
C         66.92564       85.24421       19.25269
O         66.77422       83.92928       19.43942
O         68.02070       85.75124       19.42662
H         64.58136       83.93131       20.30843
H         63.66376       86.20850       18.51563
H         65.65054       86.87842       19.66718
H         65.98817       86.63031       17.92080
N         63.83458       83.16271       17.66243
C         63.45087       82.32259       16.53900
C         64.57678       81.71592       15.73404
O         64.25620       81.05936       14.75243
H         63.59973       82.80317       18.58800
H         62.78672       82.91257       15.86966
H         62.84206       81.47514       16.91877
N         65.89786       81.86505       16.04585
C         66.94361       81.33033       15.17120
C         66.96225       79.80742       15.06979
O         67.63709       79.31317       14.17667
C         68.33567       81.88630       15.54884
C         68.85148       81.44114       16.89873
N         69.20976       80.15554       17.12749
O         68.98554       82.26738       17.78809
H         66.16293       82.42724       16.86756
H         66.72250       81.72295       14.15235
H         68.25446       82.99571       15.53926
H         69.08310       81.60365       14.77622
H         69.15368       79.44156       16.38884
H         69.57345       79.87188       18.04825
N         66.29223       78.99806       15.94509
C         66.29674       77.54388       15.83696
C         66.92455       76.83177       17.02218
O         66.92753       75.60922       16.99226
H         65.75162       79.41565       16.71477
H         66.84422       77.20686       14.93109
H         65.24495       77.19989       15.73295
N         67.45255       77.48860       18.10089
C         68.02092       76.77487       19.25240
C         68.15307       77.66362       20.48520
O         67.89844       78.85611       20.41055
C         69.34064       76.05335       18.86721
C         70.47014       76.97024       18.45073
C         71.18019       77.71916       19.40518
C         70.85383       77.05028       17.10019
C         72.25100       78.53148       19.01578
C         71.91698       77.87138       16.71162
C         72.62157       78.61117       17.66592
O         73.65386       79.38639       17.27576
H         67.39718       78.51320       18.12160
H         67.27926       76.00245       19.55546
H         69.11561       75.36147       18.03102
H         69.69926       75.40376       19.69366
H         70.92298       77.65983       20.45380
H         70.32738       76.48133       16.34425
H         72.79567       79.09328       19.76457
H         72.19767       77.92710       15.66724
H         74.17705       79.90383       17.90456
N         68.48850       77.11416       21.68873
C         68.45481       77.85690       22.94577
C         69.85346       77.91366       23.53109
O         70.44837       76.86643       23.74703
C         67.46563       77.17846       23.94554
C         66.07541       76.93967       23.29812
C         67.32901       78.03910       25.22036
C         65.12855       76.11888       24.17958
H         68.71962       76.10995       21.73090
H         68.08936       78.88973       22.77177
H         67.88236       76.18332       24.21889
H         66.20168       76.35367       22.36313
H         65.60065       77.90955       23.03944
H         66.89488       79.03187       24.97351
H         66.69028       77.54992       25.98099
H         68.31266       78.19854       25.69765
H         64.18453       75.92478       23.62862
H         65.59346       75.14108       24.43206
H         64.86610       76.65244       25.11413
N         70.43039       79.11030       23.84198
C         71.74937       79.21319       24.46218
C         71.64042       79.14585       25.97805
O         70.54006       79.05289       26.49435
C         72.45642       80.49234       23.98509
O         71.74087       81.62769       24.38824
H         69.88267       79.97281       23.70276
H         72.37575       78.35387       24.13608
H         72.52456       80.46659       22.87459
H         73.48487       80.52957       24.40607
H         72.26730       82.41002       24.07891
N         72.75681       79.13477       26.75934
C         72.70461       79.00626       28.21439
C         72.04248       80.21001       28.86310
O         71.05478       80.03941       29.56403
C         74.11636       78.82402       28.78342
H         73.67764       79.16893       26.29609
H         72.13446       78.08479       28.47196
H         74.76060       79.69860       28.55384
H         74.06895       78.69000       29.88541
H         74.58270       77.91749       28.34203
N         72.54953       81.46163       28.67773
C         71.99105       82.66472       29.29075
C         70.54220       82.86229       28.89742
O         69.71801       83.09227       29.77140
C         72.80860       83.89435       28.88097
H         73.37560       81.56167       28.06765
H         72.06022       82.58504       30.39941
H         73.86352       83.77002       29.20749
H         72.78777       84.03738       27.77976
H         72.40070       84.80465       29.37148
N         70.15813       82.73771       27.59593
C         68.77964       82.88614       27.13614
C         67.83990       82.00845       27.94866
O         66.87775       82.52391       28.50130
C         68.70345       82.55910       25.62658
C         67.30650       82.79649       25.03942
C         67.29907       82.56781       23.55415
O         67.60893       81.35916       23.05270
O         67.00790       83.47673       22.79331
H         70.88383       82.49204       26.90457
H         68.47325       83.94797       27.27091
H         69.00984       81.50383       25.45275
H         69.41936       83.22344       25.09295
H         67.00070       83.84157       25.24761
H         66.57327       82.11440       25.51600
N         68.08741       80.68243       28.10645
C         67.24929       79.82505       28.91426
H         66.22686       79.78014       28.48540
H         67.67478       78.79894       28.94076
H         67.20273       80.21173       29.95540
H         68.91918       80.27579       27.66890
Ca        66.70721       81.74519       19.81692
O         69.86834       83.68828       21.20138
H         69.70049       83.82706       20.23557
H         70.03237       84.59577       21.56056
O         70.41389       80.87491       20.56279
H         71.25593       81.32575       20.82288
H         70.44378       80.00707       21.03621

Ca 1.0



