%chk=holoCaM-CaMKII.loop1.water2.frame62.chk
%nprocshared=20
%mem=10GB
%nosave
#b3lyp/svp scf=(tight,noincore,xqc) Test 
#IOP(5/87=12) Density=Current Pop=(MK,readradii) iop(6/33=2) iop(6/42=6)

holoCaM-CaMKII.loop1.water2.frame62 

   0  1 
C         75.40240       51.60432       87.81712
C         74.46492       52.04514       88.89596
O         74.88566       52.20067       90.03310
H         76.42666       51.45935       88.22012
H         75.04230       50.64950       87.38126
H         75.43446       52.38096       87.02357
N         73.15984       52.27998       88.59585
C         72.20048       52.77076       89.57313
C         72.03850       51.76450       90.70362
O         71.58522       50.65397       90.46202
C         70.86327       53.03923       88.87089
C         69.85351       53.73097       89.72053
O         68.75985       53.94781       89.24119
O         70.13029       54.14257       90.97309
H         72.85495       52.13870       87.61951
H         72.58749       53.73867       89.95952
H         70.43972       52.07674       88.50925
H         71.03521       53.69548       87.99069
N         72.45908       52.07941       91.95936
C         72.49762       51.11968       93.05457
C         71.11783       50.99515       93.68050
O         70.51658       49.93453       93.58441
C         73.63270       51.54158       94.02167
C         73.99135       50.58337       95.16533
C         74.27044       49.15031       94.69083
C         74.93804       48.32437       95.79829
N         75.00890       46.91161       95.42794
H         72.89904       52.99719       92.09756
H         72.80341       50.13807       92.63054
H         73.42549       52.54407       94.45392
H         74.55154       51.64086       93.39968
H         73.18745       50.56345       95.93157
H         74.90954       51.00055       95.63792
H         74.94755       49.15012       93.80769
H         73.30187       48.68839       94.40251
H         74.36813       48.41715       96.74804
H         75.96621       48.72038       95.96694
H         75.54268       46.39138       96.16115
H         74.04083       46.51802       95.37634
H         75.48729       46.79269       94.50576
N         70.53990       52.05743       94.31123
C         69.17465       52.03912       94.85005
C         68.08091       51.97390       93.77521
O         66.92094       51.86810       94.15155
C         68.92303       53.26389       95.76472
C         69.14767       54.60312       95.10658
O         69.60284       54.68626       93.84034
O         68.98150       55.62261       95.75474
H         71.11549       52.90223       94.43223
H         69.07017       51.13852       95.49687
H         69.61390       53.20056       96.63347
H         67.88489       53.21831       96.16278
N         68.34844       52.01479       92.43647
C         67.31353       51.87573       91.41907
C         66.32926       53.03611       91.30140
O         65.38826       52.88488       90.53502
H         69.32112       52.06795       92.11268
H         66.74762       50.94191       91.63203
H         67.79123       51.74448       90.42534
N         66.44579       54.20641       92.00176
C         65.41191       55.25362       91.95491
C         65.22334       55.91810       90.58290
O         64.25499       56.64635       90.41788
C         65.67127       56.33774       93.02532
C         66.80977       57.25104       92.66775
O         66.60085       58.57648       92.55569
O         67.91822       56.79920       92.45637
H         67.24358       54.32077       92.64119
H         64.45939       54.75020       92.23068
H         65.87451       55.84847       94.00290
H         64.76004       56.96233       93.14145
N         66.12510       55.74907       89.57766
C         66.01667       56.32951       88.24606
C         67.17367       57.25465       87.90468
O         67.25778       57.66278       86.75494
H         66.94505       55.17538       89.76286
H         65.06827       56.89136       88.10974
H         66.02053       55.48882       87.51899
N         68.07959       57.65978       88.84231
C         69.20574       58.54921       88.55958
C         70.51763       57.92303       89.00421
O         70.52541       57.07905       89.88974
C         68.99312       59.92615       89.24969
C         68.02730       60.79527       88.44112
O         68.47958       59.77716       90.54915
H         67.95815       57.35318       89.81704
H         69.31108       58.72518       87.46595
H         69.94583       60.50140       89.28883
H         69.14162       59.25831       91.06997
H         68.46585       61.00487       87.44063
H         67.04489       60.29702       88.30856
H         67.87339       61.76911       88.95386
N         71.68387       58.32555       88.41724
C         73.00184       57.81288       88.77410
C         73.80167       58.95745       89.36107
O         74.11758       59.89938       88.64544
C         73.70636       57.20560       87.51772
C         72.93099       55.96480       87.01027
C         75.18037       56.84093       87.80456
C         73.38785       55.48858       85.62807
H         71.63872       59.04651       87.67977
H         72.91462       57.01851       89.54391
H         73.69785       57.98352       86.72144
H         71.85291       56.21079       86.91349
H         73.03268       55.13737       87.74556
H         75.25199       56.07871       88.60815
H         75.69275       56.45920       86.90022
H         75.75341       57.73840       88.10582
H         74.45032       55.17607       85.61866
H         72.77852       54.61370       85.31922
H         73.23968       56.30016       84.88333
N         74.15111       58.94406       90.67765
C         74.97430       59.98915       91.28241
C         76.41583       59.84205       90.80549
O         76.72384       58.88433       90.12202
C         74.91087       59.91365       92.83297
C         73.48261       60.10794       93.35460
O         75.39741       58.67664       93.27599
H         73.81323       58.16948       91.26698
H         74.57565       60.98253       90.97945
H         75.54227       60.73296       93.24688
H         75.59596       58.77035       94.24422
H         73.07542       61.08420       93.01960
H         72.81772       59.29395       92.99985
H         73.48371       60.08875       94.46507
N         77.36675       60.75210       91.15567
C         78.78474       60.56846       90.83204
C         79.32242       59.33062       91.53201
O         79.98631       58.51875       90.89913
C         79.62532       61.80029       91.25234
C         79.26318       63.03590       90.42154
O         79.45469       62.07232       92.62001
H         77.07663       61.57715       91.69778
H         78.91898       60.45014       89.73298
H         80.69567       61.55748       91.04600
H         80.22715       62.62803       92.90266
H         79.91445       63.88677       90.71282
H         79.42702       62.82891       89.34201
H         78.20478       63.32966       90.57578
N         79.04609       59.12471       92.84742
C         79.53335       58.00037       93.64277
C         79.16463       56.67536       92.99265
O         80.04014       55.84866       92.78633
C         78.97820       58.09740       95.08931
C         79.49819       59.37352       95.79472
C         79.03788       59.55107       97.24855
C         77.52319       59.77158       97.39206
N         77.18101       60.10568       98.77589
H         78.42185       59.80887       93.29996
H         80.64369       58.04565       93.70939
H         79.32000       57.21416       95.67187
H         77.86766       58.08876       95.06211
H         79.20164       60.28930       95.24444
H         80.60865       59.33210       95.79809
H         79.55168       60.45861       97.63604
H         79.35882       58.68254       97.86253
H         76.97356       58.85535       97.08662
H         77.20295       60.61024       96.73402
H         77.47814       59.33758       99.42023
H         77.65233       60.99781       99.05452
H         76.14693       60.23777       98.85524
N         77.88727       56.43924       92.59301
C         77.45100       55.22155       91.91190
C         78.25304       54.99025       90.64216
O         78.87436       53.94191       90.52508
C         75.93748       55.30918       91.61258
C         75.13395       55.24617       92.92652
C         73.65479       55.40228       92.75346
O         73.15645       55.60711       91.65895
O         72.86335       55.30007       93.83620
H         77.20351       57.18636       92.75406
H         77.61639       54.34291       92.57552
H         75.62497       54.45365       90.97856
H         75.71978       56.24917       91.05784
H         75.46099       56.03828       93.62802
H         75.32256       54.25997       93.40246
N         78.31527       55.92733       89.66069
C         79.11008       55.74159       88.46601
H         80.17623       55.58810       88.74110
H         78.74391       54.86138       87.89679
H         79.04042       56.64211       87.81949
H         77.80343       56.80814       89.77203
Ca        70.50867       56.57615       92.99235
O         70.21363       59.37733       93.42865
H         70.42765       60.32959       93.58811
H         69.23520       59.31132       93.56190
O         71.75523       57.31013       95.76185
H         72.13900       58.19262       95.53251
H         70.77733       57.45371       95.72134

Ca 1.0



