%chk=holoCaM-CaMKII.loop1.water1.frame228.chk
%nprocshared=20
%mem=10GB
%nosave
#b3lyp/svp scf=(tight,noincore,xqc) Test 
#IOP(5/87=12) Density=Current Pop=(MK,readradii) iop(6/33=2) iop(6/42=6)

holoCaM-CaMKII.loop1.water1.frame228 

   0  1 
C         49.68664       41.55384       50.26525
C         48.49775       41.04204       51.02342
O         48.61201       40.06093       51.74231
H         50.58273       40.92667       50.45346
H         49.46242       41.54280       49.17719
H         49.90396       42.59766       50.57734
N         47.31134       41.69422       50.91787
C         46.09352       41.28443       51.61118
C         45.58778       39.96711       51.00692
O         45.03176       39.99169       49.91746
C         45.07470       42.43860       51.43734
C         43.70862       42.40184       52.06162
O         43.28337       41.47444       52.94375
O         42.93649       43.27742       51.71822
H         47.29671       42.54870       50.33747
H         46.34696       41.17716       52.68681
H         44.90975       42.55032       50.34326
H         45.54799       43.37741       51.80172
N         45.84312       38.76574       51.60894
C         45.47728       37.47715       51.00847
C         43.98917       37.13784       51.12273
O         43.57938       36.15581       50.51881
C         46.29739       36.32696       51.63755
C         47.84049       36.41142       51.52694
C         48.39821       36.39068       50.08841
C         48.50232       37.78054       49.43141
N         48.94900       37.67163       48.04445
H         46.41604       38.76985       52.46447
H         45.70151       37.50006       49.92622
H         45.99043       35.36971       51.16008
H         46.03866       36.25365       52.71693
H         48.20101       35.48183       52.02131
H         48.26908       37.26037       52.09937
H         47.80373       35.67932       49.47550
H         49.44165       36.00693       50.12988
H         49.24029       38.38113       50.00301
H         47.55254       38.33709       49.44102
H         48.23654       37.14736       47.48585
H         49.04985       38.63212       47.64283
H         49.87119       37.18196       47.99425
N         43.13488       37.85469       51.90494
C         41.72147       37.54279       52.08825
C         40.81904       38.73208       51.73724
O         39.61085       38.60063       51.87587
C         41.49471       36.99999       53.51973
C         41.88471       37.93693       54.62477
O         42.83474       37.58047       55.50964
O         41.31216       39.00083       54.75840
H         43.50155       38.63793       52.43793
H         41.41671       36.71259       51.41415
H         42.09735       36.07130       53.63068
H         40.42695       36.72131       53.64979
N         41.31719       39.89245       51.20851
C         40.48191       40.98046       50.71445
C         39.74796       41.80778       51.75890
O         39.01111       42.69186       51.34438
H         42.32618       39.97802       51.02918
H         39.74288       40.55557       49.99984
H         41.12232       41.68676       50.14328
N         39.86648       41.60715       53.10448
C         39.07071       42.36687       54.07737
C         39.43200       43.85482       54.16324
O         38.70442       44.59676       54.80755
C         39.14639       41.72457       55.47910
C         40.46555       41.93970       56.17206
O         41.50940       41.54775       55.67754
O         40.49123       42.58078       57.35539
H         40.47504       40.85093       53.43420
H         38.01181       42.27819       53.74740
H         38.93565       40.63634       55.39544
H         38.35319       42.17122       56.11691
N         40.56415       44.34269       53.58601
C         40.99167       45.73316       53.62375
C         42.31078       45.92015       54.35546
O         42.83687       47.02392       54.30464
H         41.17575       43.68973       53.09861
H         40.23609       46.39044       54.10638
H         41.11186       46.07484       52.57311
N         42.87013       44.92912       55.11416
C         44.08182       45.10749       55.91588
C         45.08030       43.97223       55.71526
O         44.79660       43.01309       55.01067
C         43.69286       45.21178       57.41658
C         43.00902       46.54748       57.71290
O         42.82932       44.17084       57.79209
H         42.37164       44.03365       55.20893
H         44.61345       46.04199       55.62622
H         44.59562       45.19067       58.06512
H         43.29493       43.31903       57.59726
H         43.70467       47.38450       57.48496
H         42.08352       46.67157       57.11400
H         42.74558       46.60230       58.79039
N         46.30355       44.05360       56.31684
C         47.36737       43.05830       56.20744
C         47.80518       42.64992       57.61547
O         47.99325       43.52689       58.44937
C         48.56926       43.66563       55.42151
C         48.10424       44.21921       54.04634
C         49.67118       42.60004       55.23122
C         49.19862       44.97126       53.28582
H         46.51960       44.90717       56.85613
H         47.02216       42.16557       55.63740
H         48.98146       44.51420       56.01233
H         47.28742       44.95475       54.20289
H         47.70978       43.39483       53.41366
H         50.02781       42.21993       56.20735
H         49.28480       41.74304       54.63634
H         50.56083       43.01615       54.72072
H         48.77378       45.38797       52.34848
H         49.58142       45.81271       53.90271
H         50.03896       44.30682       53.00501
N         48.07217       41.34816       57.92598
C         48.55174       40.90463       59.23535
C         49.99895       40.46000       59.13252
O         50.55531       40.45252       58.04611
C         47.68917       39.73502       59.78618
C         46.21412       40.12683       59.95089
O         47.84938       38.59227       58.97519
H         48.01311       40.65059       57.17911
H         48.51630       41.74453       59.96302
H         48.04645       39.46208       60.80196
H         46.98927       38.34752       58.54917
H         45.78565       40.39422       58.96516
H         45.64564       39.26616       60.36822
H         46.11339       40.98661       60.64387
N         50.67885       40.08038       60.24554
C         52.04934       39.57666       60.21734
C         52.11199       38.24681       59.47895
O         52.95319       38.08279       58.60753
C         52.61044       39.41089       61.65153
C         52.69003       40.75888       62.38086
O         51.82068       38.51636       62.39344
H         50.19300       40.14791       61.15241
H         52.71222       40.31157       59.70555
H         53.64841       39.01180       61.55348
H         52.40318       38.13422       63.10058
H         53.14419       40.61765       63.38347
H         53.32135       41.46955       61.80594
H         51.68429       41.20781       62.51694
N         51.22387       37.25817       59.78233
C         51.21169       35.92998       59.16849
C         51.13942       36.03187       57.65664
O         51.96503       35.43825       56.97668
C         50.01624       35.09703       59.71045
C         50.03495       34.86366       61.24158
C         51.24299       34.03590       61.71517
C         51.33585       33.91299       63.24632
N         50.19486       33.21273       63.83601
H         50.49780       37.48386       60.47556
H         52.15326       35.39826       59.41181
H         49.99482       34.10628       59.20557
H         49.06937       35.62450       59.45640
H         49.10161       34.32554       61.51130
H         50.02159       35.83182       61.78092
H         52.18104       34.53305       61.40038
H         51.20705       33.02623       61.25103
H         51.42566       34.92692       63.69657
H         52.26522       33.35085       63.48839
H         50.36055       33.11168       64.86377
H         49.31515       33.75961       63.70270
H         50.09794       32.26087       63.41469
N         50.20143       36.81741       57.06936
C         50.09262       37.02392       55.62766
C         51.40413       37.54866       55.06401
O         51.95237       36.92016       54.16887
C         48.92500       37.98693       55.33750
C         47.57793       37.32742       55.70647
C         46.45455       38.29678       55.55256
O         45.47962       38.07224       54.67381
O         46.42708       39.32608       56.19862
H         49.56127       37.32564       57.69393
H         49.86842       36.05761       55.12252
H         48.90160       38.25554       54.25847
H         49.08041       38.92439       55.91655
H         47.56981       36.96198       56.75035
H         47.41429       36.45548       55.03639
N         51.99203       38.66593       55.56738
C         53.27404       39.14553       55.09766
H         54.04710       38.35973       55.24221
H         53.21286       39.41321       54.02232
H         53.57837       40.04403       55.67628
H         51.53420       39.17376       56.33002
Ca        44.58949       39.99045       53.96803
O         43.37765       40.60241       58.11802
H         43.38751       40.15856       59.00229
H         42.56426       41.16201       58.14463

Ca 1.0



