%chk=holoCaM-CaMKII.loop4.water2.frame228.chk
%nprocshared=20
%mem=10GB
%nosave
#b3lyp/svp scf=(tight,noincore,xqc) Test 
#IOP(5/87=12) Density=Current Pop=(MK,readradii) iop(6/33=2) iop(6/42=6)

holoCaM-CaMKII.loop4.water2.frame228 

   -3  1 
C         57.41080       46.99681       30.24257
C         58.57852       46.82165       29.32347
O         59.69440       47.10887       29.73396
H         56.46694       46.66157       29.76428
H         57.57792       46.39655       31.16090
H         57.31349       48.06826       30.51568
N         58.39510       46.38290       28.04649
C         59.49366       46.19332       27.11654
C         59.50934       47.33372       26.12448
O         58.47509       47.63593       25.54458
C         59.36795       44.84064       26.39885
C         60.63304       44.50532       25.66694
O         61.72234       45.28768       25.80369
O         60.71490       43.45824       25.04794
H         57.43601       46.21297       27.70561
H         60.45269       46.18417       27.67931
H         58.50223       44.84989       25.70149
H         59.21250       44.03248       27.14674
N         60.66623       48.01134       25.88024
C         60.73633       49.21108       25.06595
C         61.33849       48.88710       23.70731
O         60.64062       49.04635       22.71455
C         61.52639       50.30499       25.84573
C         60.98777       50.52288       27.28859
C         61.58717       51.62554       25.06494
C         59.52757       50.97020       27.37765
H         61.53787       47.68567       26.31818
H         59.70853       49.59097       24.87258
H         62.57499       49.95522       25.97320
H         61.62329       51.27781       27.80050
H         61.08835       49.57802       27.86666
H         62.18413       52.37229       25.63087
H         62.08311       51.47205       24.08374
H         60.57155       52.03247       24.88506
H         59.25009       51.09162       28.44611
H         59.37656       51.94239       26.86793
H         58.85105       50.20950       26.93796
N         62.62130       48.44011       23.57069
C         63.21077       48.14991       22.26028
C         62.60608       46.92153       21.57126
O         62.96168       46.67215       20.42749
C         64.75091       48.08226       22.34334
C         65.27690       47.06683       23.31224
O         65.05049       45.87894       23.15639
O         66.03034       47.47488       24.35059
H         63.20498       48.35946       24.41558
H         63.00356       49.01917       21.59618
H         65.11534       49.08342       22.66399
H         65.17582       47.88310       21.33561
N         61.65329       46.14548       22.16377
C         60.94430       45.08255       21.47074
C         61.80651       43.89766       21.11069
O         61.83889       43.51878       19.94850
H         61.34710       46.34869       23.12452
H         60.44960       45.49678       20.56382
H         60.14177       44.70084       22.13899
N         62.47040       43.21571       22.08405
C         63.13596       41.93168       21.87044
C         62.48186       40.86232       22.75370
O         63.08271       39.82503       22.99470
C         64.67109       42.08209       22.02908
C         65.15278       42.48955       23.38688
O         64.32382       42.46553       24.43115
O         66.30567       42.85621       23.54431
H         62.44098       43.59062       23.04247
H         63.00189       41.59149       20.82033
H         64.97910       42.87631       21.31416
H         65.19340       41.14469       21.74333
N         61.18991       41.02345       23.18033
C         60.42272       40.03858       23.92711
C         60.76449       39.91539       25.39883
O         60.06431       39.16104       26.06284
H         60.66335       41.85675       22.88271
H         60.48369       39.05023       23.42207
H         59.35672       40.35586       23.90025
N         61.79590       40.58304       25.99481
C         62.11526       40.43812       27.41534
C         62.29149       41.78033       28.10670
O         62.24042       42.81785       27.46137
C         63.40158       39.60432       27.56588
C         63.19973       38.17107       27.05427
C         64.42864       37.33560       27.28481
N         65.59839       37.64351       26.67928
O         64.36629       36.36459       28.02412
H         62.41437       41.17051       25.42076
H         61.29715       39.90699       27.95209
H         63.68053       39.53330       28.63839
H         64.23294       40.10406       27.02335
H         62.95879       38.16936       25.97021
H         62.34466       37.71758       27.60453
H         65.66746       38.45188       26.04436
H         66.43677       37.06679       26.84146
N         62.52218       41.81743       29.44809
C         62.77358       43.02827       30.21747
C         64.16018       42.91377       30.82931
O         64.40797       41.94491       31.53796
C         61.67855       43.19574       31.31184
C         61.94446       44.41787       32.20952
C         60.28667       43.34172       30.67387
H         62.53088       40.92536       29.96889
H         62.73751       43.92820       29.56982
H         61.67118       42.29143       31.96094
H         61.15284       44.50405       32.98496
H         62.91209       44.31385       32.74112
H         61.95948       45.35357       31.61141
H         60.03649       42.45129       30.06071
H         59.50990       43.43742       31.46314
H         60.24554       44.24397       30.02599
N         65.09929       43.88880       30.64087
C         66.41066       43.86205       31.29248
C         66.39962       44.79412       32.48468
O         65.36552       45.37708       32.75238
C         67.57995       44.14676       30.31277
C         67.87549       45.60580       30.02580
N         67.00568       46.40621       29.37644
O         68.95038       46.06733       30.38213
H         64.82256       44.72457       30.11040
H         66.59396       42.84006       31.69081
H         67.44024       43.57985       29.37161
H         68.49838       43.73930       30.79021
H         66.10455       46.05516       29.03815
H         67.25186       47.39087       29.19536
N         67.48999       44.96326       33.27562
C         67.47132       45.79422       34.47723
C         67.14952       47.25353       34.17670
O         66.27566       47.80875       34.82642
C         68.81819       45.68274       35.21772
C         68.79332       46.40673       36.54476
C         67.86031       46.04570       37.53475
C         69.70238       47.44386       36.80842
C         67.83186       46.71531       38.75921
C         69.67673       48.10802       38.03917
C         68.73898       47.74608       39.01797
O         68.70148       48.37755       40.20827
H         68.35296       44.45047       33.03615
H         66.68591       45.39139       35.15272
H         69.63105       46.07251       34.56520
H         69.03002       44.61040       35.41995
H         67.15028       45.24718       37.36307
H         70.43242       47.73754       36.06450
H         67.10387       46.42933       39.50818
H         70.38563       48.90320       38.23070
H         69.31474       49.09188       40.43134
N         67.81835       47.93036       33.20260
C         67.58795       49.34210       32.88044
C         66.11314       49.60827       32.60750
O         65.54765       50.49193       33.23688
C         68.46245       49.77437       31.67943
C         69.96707       49.70954       32.01413
C         70.81508       50.09991       30.83851
O         71.70444       49.22417       30.33121
O         70.71891       51.21374       30.34877
H         68.50663       47.39840       32.65253
H         67.88353       49.97292       33.74909
H         68.21618       50.82638       31.41192
H         68.23778       49.12998       30.80128
H         70.25700       48.68342       32.31817
H         70.18983       50.39413       32.86118
N         65.41299       48.83625       31.73346
C         63.97185       48.97059       31.50220
C         63.19441       48.84571       32.80729
O         62.40078       49.72642       33.10813
C         63.50353       47.91367       30.47642
C         64.03555       48.25660       29.07099
C         63.70524       47.22265       28.03400
O         64.06075       47.39846       26.88032
O         63.03921       46.09898       28.35495
H         65.92610       48.08195       31.25367
H         63.74284       49.97361       31.07727
H         62.39285       47.90116       30.41936
H         63.84610       46.90638       30.80324
H         65.13525       48.37354       29.09186
H         63.59526       49.22642       28.75354
N         63.40040       47.80345       33.65187
C         62.71554       47.66254       34.91741
H         61.62638       47.53792       34.74798
H         63.09890       46.76693       35.45399
H         62.90079       48.55470       35.55287
H         64.09602       47.10258       33.40659
Ca        63.66413       44.37617       25.30483
O         65.86271       42.57964       27.30705
H         66.66943       42.15343       27.68879
H         65.72552       42.09756       26.45566
O         66.89910       45.50365       26.36631
H         66.44364       46.33624       26.64577
H         67.79162       45.80631       26.06397

Ca 1.0



