%chk=holoCaM-CaMKII.loop4.water2.frame144.chk
%nprocshared=20
%mem=10GB
%nosave
#b3lyp/svp scf=(tight,noincore,xqc) Test 
#IOP(5/87=12) Density=Current Pop=(MK,readradii) iop(6/33=2) iop(6/42=6)

holoCaM-CaMKII.loop4.water2.frame144 

   -3  1 
C         10.23553        0.96554       78.27347
C         11.12339        0.56132       79.40893
O         12.25906        1.01019       79.47972
H          9.32791        1.46260       78.68057
H         10.75593        1.67753       77.59954
H          9.93117        0.06687       77.69939
N         10.63718       -0.25723       80.37779
C         11.39445       -0.58234       81.57376
C         12.49978       -1.58788       81.28665
O         12.23315       -2.58209       80.62545
C         10.45738       -1.14201       82.65656
C         11.06940       -1.01052       84.01839
O         10.42704       -1.34784       84.99370
O         12.25364       -0.38616       84.18113
H          9.65488       -0.56778       80.30582
H         11.79550        0.37889       81.96950
H         10.15963       -2.18963       82.43056
H          9.53662       -0.51934       82.69821
N         13.74075       -1.43743       81.83145
C         14.84410       -2.36610       81.60731
C         15.08417       -3.24829       82.83927
O         15.26896       -4.44193       82.64323
C         16.12053       -1.59049       81.14806
C         15.79303       -0.71908       79.90056
C         17.28189       -2.56218       80.86111
C         16.96912        0.10335       79.36711
H         13.91649       -0.63018       82.44358
H         14.59521       -3.06076       80.77244
H         16.45180       -0.92506       81.96666
H         14.99361        0.00467       80.16883
H         15.41461       -1.36211       79.07662
H         17.52532       -3.16171       81.76223
H         17.02422       -3.24781       80.02673
H         18.20841       -2.00953       80.60404
H         16.61853        0.74691       78.53204
H         17.38786        0.75118       80.16003
H         17.77262       -0.54819       78.96971
N         15.07967       -2.76446       84.12247
C         15.41839       -3.59597       85.29063
C         14.23626       -3.93400       86.21350
O         14.45575       -4.62759       87.19749
C         16.59991       -2.96571       86.06033
C         16.30468       -1.65257       86.73606
O         17.28191       -1.03770       87.42825
O         15.19779       -1.14251       86.68195
H         14.85145       -1.77237       84.27422
H         15.78842       -4.58618       84.94440
H         17.44275       -2.81686       85.35042
H         16.94056       -3.67843       86.84265
N         12.95394       -3.58516       85.91348
C         11.79058       -4.10503       86.62917
C         11.49464       -3.48937       87.98635
O         11.33298       -4.22195       88.95152
H         12.77430       -3.05769       85.04856
H         11.86433       -5.21314       86.70570
H         10.89313       -3.89098       86.01127
N         11.29970       -2.14817       88.09841
C         10.73000       -1.46873       89.26821
C          9.49321       -0.64601       88.85715
O          9.01386        0.14274       89.65978
C         11.80489       -0.62065       89.99642
C         12.61926        0.19418       89.05117
O         12.01012        1.01840       88.19704
O         13.81314       -0.02626       88.92881
H         11.50768       -1.56907       87.27331
H         10.37296       -2.19187       90.03440
H         12.49714       -1.31767       90.51723
H         11.33514        0.02320       90.77072
N          8.86498       -0.85191       87.65943
C          7.63235       -0.19186       87.25178
C          7.77166        1.24679       86.79050
O          6.75136        1.79246       86.39019
H          9.19588       -1.60261       87.04255
H          6.87855       -0.27087       88.06458
H          7.22616       -0.74230       86.37365
N          8.95657        1.92743       86.77442
C          9.07472        3.28961       86.24878
C         10.08286        3.36226       85.11830
O         10.74950        2.37781       84.82426
C          9.50035        4.27769       87.35044
C          8.49504        4.36346       88.49996
C          8.89507        5.47863       89.43189
N          9.28075        5.22182       90.70135
O          8.88055        6.63270       89.02760
H          9.80647        1.46991       87.12817
H          8.10214        3.63627       85.83507
H          9.58671        5.29037       86.90210
H         10.49744        3.99386       87.75470
H          8.46998        3.38712       89.02968
H          7.47481        4.57969       88.11321
H          9.31861        4.25643       91.05724
H          9.56239        5.99376       91.32384
N         10.23755        4.53265       84.43583
C         11.21407        4.74265       83.38065
C         12.11284        5.90279       83.78660
O         11.64417        7.02954       83.88564
C         10.47409        4.99729       82.03774
C         11.42622        5.38232       80.89727
C          9.68293        3.74409       81.62454
H          9.62492        5.32942       84.67154
H         11.84731        3.83612       83.24957
H          9.75986        5.83994       82.17494
H         12.17238        4.58281       80.71209
H         10.84748        5.55591       79.96490
H         11.95047        6.32911       81.13124
H          9.12341        3.93225       80.68396
H         10.37226        2.88652       81.46066
H          8.94746        3.46179       82.40613
N         13.43049        5.67978       84.04919
C         14.40138        6.72283       84.38296
C         14.60180        7.59961       83.14728
O         14.09476        7.25008       82.09339
C         15.73230        6.00533       84.79042
C         16.83575        6.79367       85.47211
N         17.30318        6.41077       86.68442
O         17.36523        7.73757       84.91694
H         13.75897        4.71094       84.00458
H         14.00940        7.29979       85.24857
H         16.15870        5.53457       83.88447
H         15.46070        5.18583       85.49151
H         16.91727        5.59074       87.17360
H         18.08151        6.92328       87.12625
N         15.35435        8.72857       83.17129
C         15.75130        9.42235       81.94733
C         16.60380        8.48793       81.09129
O         16.31596        8.31824       79.91507
C         16.55460       10.68880       82.30294
C         17.03361       11.43235       81.07710
C         16.11955       11.97918       80.15876
C         18.41063       11.58472       80.84574
C         16.57905       12.66698       79.03045
C         18.86685       12.27143       79.71831
C         17.95203       12.81662       78.80674
O         18.38030       13.48512       77.71705
H         15.68966        9.08097       84.07679
H         14.84652        9.73662       81.38004
H         17.42383       10.39415       82.93082
H         15.91936       11.36993       82.90950
H         15.05303       11.87716       80.31502
H         19.13353       11.16975       81.53707
H         15.86716       13.08584       78.32999
H         19.93170       12.37910       79.55589
H         19.32141       13.61417       77.53063
N         17.66838        7.83761       81.64485
C         18.56500        6.93894       80.91886
C         17.87569        5.68094       80.37675
O         18.53585        4.93207       79.66944
C         19.75881        6.51080       81.81157
C         20.56704        7.70538       82.35380
C         21.78513        7.23942       83.09723
O         21.65919        6.45075       84.18189
O         22.89639        7.58425       82.72813
H         17.85874        8.01991       82.63312
H         18.97639        7.50438       80.05345
H         20.44387        5.88388       81.19807
H         19.39207        5.89580       82.66427
H         19.95978        8.31270       83.05533
H         20.87712        8.35582       81.50766
N         16.56436        5.39253       80.62896
C         15.85476        4.25400       80.05156
C         14.89980        4.72663       78.96046
O         14.72840        4.00190       77.99015
C         15.11653        3.43972       81.13980
C         16.08687        2.88607       82.19790
C         15.40152        2.01168       83.21629
O         15.78724        0.87129       83.39689
O         14.38992        2.47782       83.96582
H         16.02269        6.01772       81.22989
H         16.57143        3.56281       79.55381
H         14.59067        2.58935       80.65199
H         14.35724        4.08207       81.63682
H         16.58094        3.72296       82.72227
H         16.88057        2.29729       81.69865
N         14.30140        5.95340       79.00963
C         13.46817        6.49392       77.95515
H         12.46406        6.73328       78.36099
H         13.92755        7.43380       77.57913
H         13.35408        5.79575       77.10112
H         14.45023        6.56493       79.81619
Ca        12.69817        0.56014       86.13916
O         13.33989        3.69777       87.55399
H         13.47273        4.66031       87.74101
H         13.09233        3.31272       88.43146
O         15.94102        2.15650       87.17942
H         15.94955        1.77493       88.09320
H         16.23000        1.41174       86.59517

Ca 1.0



