%chk=holoCaM-CaMKII.loop4.water1.frame320.chk
%nprocshared=20
%mem=10GB
%nosave
#b3lyp/svp scf=(tight,noincore,xqc) Test 
#IOP(5/87=12) Density=Current Pop=(MK,readradii) iop(6/33=2) iop(6/42=6)

holoCaM-CaMKII.loop4.water1.frame320 

   -3  1 
C         50.25406       25.90190       81.96314
C         51.15183       25.85836       83.16491
O         52.30420       25.47682       83.02723
H         49.23735       26.26156       82.22917
H         50.68235       26.57814       81.19574
H         50.15904       24.87903       81.54010
N         50.67742       26.21375       84.39085
C         51.46457       26.12873       85.61520
C         51.96622       24.70710       85.83753
O         51.18998       23.76676       85.74525
C         50.62492       26.60618       86.82220
C         51.34244       26.30469       88.10896
O         50.83766       25.54234       88.91002
O         52.58117       26.78089       88.32003
H         49.69881       26.53388       84.45919
H         52.34486       26.80411       85.53259
H         49.64857       26.07695       86.83467
H         50.42437       27.69684       86.72745
N         53.26784       24.50858       86.19815
C         53.88265       23.20409       86.39834
C         54.17424       22.99433       87.88118
O         53.62314       22.06613       88.45653
C         55.17777       23.09918       85.52727
C         54.92938       23.40896       84.02686
C         55.89328       21.75016       85.70377
C         53.96072       22.45799       83.32149
H         53.85429       25.33662       86.35417
H         53.17843       22.40157       86.08821
H         55.89491       23.87104       85.87272
H         55.90173       23.38259       83.48734
H         54.53943       24.44368       83.92854
H         56.82460       21.73496       85.09659
H         56.18884       21.60281       86.76357
H         55.24601       20.90435       85.39801
H         53.85741       22.76580       82.25960
H         54.34031       21.41660       83.34092
H         52.95557       22.49656       83.78718
N         55.04938       23.79277       88.55966
C         55.40216       23.57420       89.96243
C         54.20417       23.69999       90.90651
O         53.98085       22.77563       91.67564
C         56.62555       24.42602       90.39630
C         56.55957       25.92634       90.26464
O         55.59237       26.49433       89.79096
O         57.62555       26.65602       90.64487
H         55.52140       24.54945       88.04582
H         55.77665       22.52881       90.06185
H         57.49404       24.09912       89.78234
H         56.85680       24.17922       91.45542
N         53.36566       24.77407       90.87645
C         52.18820       24.91354       91.72970
C         52.16742       26.24774       92.44236
O         52.07501       26.27039       93.66085
H         53.52802       25.49352       90.16829
H         52.10974       24.08493       92.46487
H         51.28230       24.86030       91.10329
N         52.25249       27.40752       91.73010
C         52.25623       28.74256       92.32026
C         51.24736       29.68452       91.65026
O         51.21889       30.85326       92.01133
C         53.70364       29.28860       92.31660
C         54.37721       29.41903       90.97726
O         55.67023       29.79012       90.92782
O         53.78704       29.17901       89.93984
H         52.37865       27.33972       90.71436
H         51.97455       28.69194       93.39542
H         54.31524       28.58358       92.92117
H         53.73193       30.27693       92.82418
N         50.34663       29.24396       90.71850
C         49.31384       30.08928       90.13252
C         49.79916       31.07575       89.08499
O         48.95453       31.78150       88.55178
H         50.31244       28.24530       90.47304
H         48.76703       30.62196       90.94217
H         48.57903       29.43404       89.61576
N         51.10954       31.18423       88.71716
C         51.57997       32.09838       87.67503
C         52.33620       31.31363       86.59086
O         51.63389       30.17677       86.23780
C         52.41084       33.23477       88.31259
C         53.55980       32.83310       89.26685
C         54.78663       32.24900       88.60590
N         55.98324       32.87293       88.72073
O         54.71934       31.19464       87.99572
H         51.80837       30.59220       89.18107
H         50.71597       32.58181       87.16722
H         51.68868       33.80304       88.93973
H         52.78441       33.93176       87.53171
H         53.19066       32.13917       90.04961
H         53.86419       33.76091       89.79626
H         56.07515       33.75267       89.24985
H         56.82786       32.46969       88.28956
N         52.66319       32.10360       85.39716
C         53.29638       31.30326       84.32081
C         54.49092       32.10459       83.84653
O         54.29887       33.24594       83.44774
C         52.32173       31.00516       83.11972
C         52.97864       30.04161       82.11316
C         50.96946       30.39080       83.52895
H         51.85309       32.66469       85.04626
H         53.65713       30.32697       84.72267
H         52.09027       31.96455       82.60763
H         52.30529       29.86603       81.24619
H         53.93543       30.44532       81.72696
H         53.17205       29.05821       82.59640
H         51.10303       29.39402       84.00096
H         50.41272       31.06315       84.21375
H         50.32607       30.25141       82.63379
N         55.75273       31.58203       83.85710
C         56.92693       32.34978       83.44664
C         57.39623       31.90528       82.07650
O         56.70020       31.13157       81.43425
C         58.04715       32.33339       84.52729
C         58.98289       31.14016       84.51696
N         58.56934       29.89876       84.83803
O         60.15859       31.31628       84.23083
H         55.87302       30.59703       84.12269
H         56.64873       33.42096       83.34269
H         57.61203       32.48886       85.53802
H         58.68840       33.21982       84.32879
H         57.60247       29.72588       85.12116
H         59.23445       29.11024       84.82635
N         58.55395       32.38053       81.54538
C         59.04676       31.99838       80.22968
C         59.27716       30.49357       80.10722
O         58.82107       29.92978       79.12539
C         60.33304       32.77598       79.89231
C         60.83723       32.41494       78.51510
C         60.03970       32.63377       77.37612
C         62.10307       31.82955       78.36352
C         60.49722       32.25592       76.11163
C         62.55994       31.45672       77.09754
C         61.75563       31.66381       75.96740
O         62.17965       31.29575       74.74226
H         59.10734       33.05360       82.09740
H         58.28074       32.29446       79.47867
H         61.10353       32.55304       80.66294
H         60.12432       33.86826       79.92488
H         59.05925       33.08489       77.46375
H         62.73274       31.65205       79.22642
H         59.86927       32.41808       75.24429
H         63.53619       31.00064       76.99857
H         63.03931       30.87400       74.60247
N         59.99609       29.77898       81.02375
C         60.21368       28.33366       80.87159
C         58.92964       27.50064       80.98469
O         59.00700       26.30572       80.72446
C         61.25747       27.79678       81.87473
C         62.64604       28.41534       81.65546
C         63.66850       27.74532       82.52863
O         64.61291       27.15726       82.02511
O         63.54762       27.78370       83.86912
H         60.41495       30.27764       81.82079
H         60.62668       28.16212       79.85206
H         61.36040       26.70002       81.71114
H         60.91385       27.96244       82.91990
H         62.63129       29.50238       81.87823
H         62.94046       28.27877       80.59089
N         57.72317       28.03716       81.33164
C         56.46979       27.28107       81.36943
C         55.51107       27.73490       80.26824
O         54.46022       27.12833       80.12351
C         55.78487       27.44889       82.74270
C         56.69259       27.04293       83.90920
C         56.03910       27.30329       85.23812
O         55.99907       26.33409       86.16372
O         55.59161       28.40516       85.51090
H         57.67887       29.03057       81.57059
H         56.66826       26.20086       81.19414
H         54.84761       26.85064       82.77676
H         55.52016       28.52205       82.86262
H         57.61892       27.64322       83.86369
H         56.97269       25.97033       83.82991
N         55.80295       28.78420       79.44669
C         54.94050       29.21482       78.37124
H         53.95134       29.51709       78.77088
H         55.39837       30.08938       77.85662
H         54.82431       28.39661       77.63057
H         56.66315       29.31288       79.57450
Ca        52.91173       28.68217       87.27576
O         57.80277       28.72271       87.91474
H         57.27219       27.90278       88.07384
H         58.65555       28.39332       87.53458

Ca 1.0



