%chk=holoCaM.loop4.water3.frame500.chk
%nprocshared=20
%mem=10GB
%nosave
#b3lyp/svp scf=(tight,noincore,xqc) Test 
#IOP(5/87=12) Density=Current Pop=(MK,readradii) iop(6/33=2) iop(6/42=6)

holoCaM.loop4.water3.frame500 

   -3  1 
C         98.70659       62.06705       24.97197
C         98.94010       60.92782       25.92102
O         98.04317       60.11507       26.09022
H         97.83803       62.66958       25.30541
H         99.59806       62.72475       24.89828
H         98.49774       61.65732       23.95942
N        100.15232       60.76900       26.52536
C        100.50338       59.58764       27.30220
C        101.30900       59.97605       28.54207
O        102.30021       60.67708       28.38925
C        101.34453       58.68502       26.37681
C        101.56064       57.30433       26.91390
O        102.25312       56.51619       26.29232
O        100.93985       56.89987       28.03182
H        100.90396       61.43758       26.29597
H         99.58707       59.02206       27.58537
H        102.32190       59.17273       26.17345
H        100.81256       58.55694       25.40836
N        100.98144       59.51647       29.78905
C        101.75427       59.84000       30.99757
C        102.47046       58.58710       31.54493
O        103.25594       58.71348       32.47206
C        100.81841       60.44478       32.11170
C         99.73519       61.39756       31.53972
C        101.63938       61.17725       33.19938
C         98.68364       61.82139       32.57617
H        100.16898       58.89397       29.87999
H        102.53045       60.58985       30.73229
H        100.26471       59.59439       32.57166
H         99.17304       60.85538       30.76084
H        100.19609       62.29266       31.07232
H        100.99508       61.53368       34.02629
H        102.39426       60.53073       33.67831
H        102.15894       62.05440       32.75554
H         97.88025       62.40294       32.07714
H         98.21936       60.92610       33.04569
H         99.11680       62.46417       33.36755
N        102.19788       57.33718       31.06275
C        102.67926       56.09417       31.65922
C        103.38102       55.18786       30.64373
O        104.53144       54.85037       30.88751
C        101.50269       55.40541       32.41026
C        100.16801       55.48671       31.70264
O         99.95240       54.88164       30.52338
O         99.28461       56.18018       32.18051
H        101.52173       57.23215       30.30471
H        103.43660       56.30072       32.45023
H        101.37059       55.97921       33.35615
H        101.76106       54.36440       32.69887
N        102.76969       54.73086       29.51125
C        103.37908       53.79591       28.57213
C        102.60531       52.48448       28.45348
O        103.03416       51.63388       27.68749
H        101.82855       55.05047       29.28486
H        104.41787       53.54462       28.87433
H        103.42610       54.28001       27.57356
N        101.48425       52.23068       29.19404
C        100.75072       50.96066       29.19389
C        100.02527       50.60391       27.88652
O         99.37398       49.56769       27.86598
C         99.75792       50.92480       30.38821
C         98.64282       51.93592       30.36092
O         98.54695       52.75753       29.46604
O         97.73921       51.93662       31.35812
H        101.18097       52.94097       29.86641
H        101.48237       50.14885       29.39871
H        100.33000       51.08446       31.32803
H         99.29855       49.91522       30.44316
N        100.10208       51.36091       26.75394
C         99.45050       50.99129       25.50251
C         97.94726       51.22917       25.46938
O         97.35611       50.95492       24.43633
H        100.70417       52.18908       26.73873
H         99.68547       49.93074       25.26043
H         99.87542       51.61581       24.68718
N         97.26551       51.75808       26.52798
C         95.83228       52.06245       26.51286
C         95.61955       53.54880       26.79896
O         96.60031       54.24734       27.00436
C         95.10895       51.19126       27.55830
C         95.37546       49.69076       27.32850
C         94.59914       48.79189       28.25913
N         94.76511       47.45113       28.18589
O         93.81804       49.25931       29.07554
H         97.77418       51.96674       27.38903
H         95.39555       51.83697       25.51551
H         94.01632       51.38075       27.48345
H         95.44935       51.46409       28.58202
H         96.45819       49.48804       27.47927
H         95.10548       49.42116       26.28485
H         95.42343       47.03987       27.50750
H         94.23831       46.82198       28.80957
N         94.36582       54.10828       26.81996
C         94.14788       55.53654       27.07240
C         93.30388       55.72750       28.33016
O         92.14652       55.33499       28.35120
C         93.48842       56.22493       25.84400
C         93.35450       57.74244       26.07077
C         94.30462       55.98304       24.56409
H         93.54515       53.51354       26.63627
H         95.12484       56.04041       27.23107
H         92.47363       55.79766       25.68293
H         92.87725       58.22571       25.19208
H         92.72157       57.95843       26.95451
H         94.35402       58.20316       26.22890
H         95.33307       56.38693       24.67011
H         94.36649       54.89828       24.33591
H         93.81518       56.47867       23.69821
N         93.85102       56.32651       29.42777
C         93.13724       56.57128       30.68346
C         92.14175       57.71812       30.54236
O         92.10079       58.35776       29.50604
C         94.19506       56.91275       31.76758
C         93.69618       57.08952       33.17615
N         93.04836       56.08851       33.81327
O         93.90835       58.14014       33.76157
H         94.84729       56.57759       29.38037
H         92.61224       55.63688       30.97800
H         94.73828       57.82863       31.45653
H         94.91761       56.08226       31.81063
H         92.86807       55.19123       33.34165
H         92.72761       56.21322       34.78382
N         91.30930       58.03714       31.57142
C         90.43037       59.20379       31.59161
C         91.23492       60.50306       31.60152
O         90.99336       61.33096       30.73342
C         89.37875       59.08260       32.73155
C         89.89909       58.77472       34.12072
C         89.84178       57.45245       34.60295
C         90.41270       59.77763       34.95476
C         90.32117       57.13512       35.87421
C         90.88296       59.45818       36.23638
C         90.84965       58.13759       36.69481
O         91.32601       57.84389       37.92154
H         91.30169       57.40997       32.38225
H         89.81132       59.20736       30.66453
H         88.74181       58.22172       32.42926
H         88.69394       59.95813       32.75773
H         89.44225       56.65778       33.98495
H         90.44416       60.80515       34.61642
H         90.28512       56.10835       36.21623
H         91.28017       60.23617       36.87518
H         91.33424       56.93917       38.26632
N         92.22596       60.74846       32.51383
C         92.99960       61.99841       32.51863
C         93.80887       62.19936       31.23758
O         94.30408       63.29797       31.02619
C         93.98261       62.07954       33.72038
C         93.33702       61.96527       35.11380
C         92.36446       63.06231       35.46896
O         92.14606       63.99518       34.71285
O         91.73778       63.02213       36.65981
H         92.42242       60.03056       33.21988
H         92.26964       62.83072       32.58140
H         94.54263       63.04023       33.68330
H         94.72336       61.25406       33.62338
H         94.14377       61.97576       35.87771
H         92.83482       60.98905       35.19441
N         94.00786       61.18480       30.35258
C         94.75597       61.32208       29.10797
C         93.82958       61.80834       28.02028
O         94.13997       62.79967       27.37504
C         95.43075       59.97520       28.75646
C         96.46572       59.67417       29.84677
C         97.21187       58.38809       29.73066
O         97.99049       58.10718       30.62501
O         97.07196       57.52755       28.70608
H         93.64301       60.25003       30.57971
H         95.58177       62.06337       29.22058
H         95.94750       60.04861       27.77573
H         94.67375       59.16302       28.69768
H         95.96735       59.65939       30.83641
H         97.20956       60.49400       29.84899
N         92.64510       61.17886       27.79655
C         91.68133       61.59305       26.80218
H         90.74083       61.89240       27.31192
H         92.04300       62.44687       26.19359
H         91.46733       60.73792       26.12846
H         92.38951       60.38095       28.38441
Ca        98.45566       55.79272       29.09347
O         96.73405       54.80706       30.95535
H         97.09999       54.53257       31.83244
H         96.25919       54.01194       30.60818
O         99.73255       54.52320       26.38055
H        100.71756       54.44428       26.43196
H         99.49876       54.12621       25.50432
O         97.80442       56.64838       25.85712
H         98.35730       57.45818       25.98411
H         98.00066       56.35569       24.93203

Ca 1.0



