%chk=holoCaM-CaMKII.loop2.water2.frame260.chk
%nprocshared=20
%mem=10GB
%nosave
#b3lyp/svp scf=(tight,noincore,xqc) Test 
#IOP(5/87=12) Density=Current Pop=(MK,readradii) iop(6/33=2) iop(6/42=6)

holoCaM-CaMKII.loop2.water2.frame260 

   -2  1 
C        105.80358       93.70702       51.61209
C        106.40572       93.34260       50.28125
O        106.52336       92.16442       49.98265
H        104.77199       93.29742       51.67452
H        106.41201       93.29145       52.43989
H        105.73592       94.80933       51.74053
N        106.76704       94.31927       49.40706
C        107.21271       94.06317       48.04159
C        108.58766       93.40032       47.96822
O        109.52477       93.93269       48.54719
C        107.28881       95.40296       47.27699
C        107.43029       95.20379       45.79746
O        107.58651       96.16661       45.06524
O        107.30819       93.97579       45.26338
H        106.62802       95.29929       49.69997
H        106.43636       93.43712       47.54839
H        108.14152       96.00046       47.66890
H        106.35658       95.98736       47.42778
N        108.79344       92.28851       47.19637
C        110.10731       91.68437       46.97903
C        110.53942       91.63274       45.50189
O        111.69891       91.30949       45.28228
C        110.11412       90.26433       47.55711
H        107.98617       91.86733       46.73183
H        110.87997       92.27278       47.51948
H        109.85457       90.28849       48.63682
H        109.37267       89.62642       47.02802
H        111.11943       89.80174       47.45239
N        109.69003       91.85440       44.44432
C        110.09909       91.67121       43.03859
C        109.68813       92.81148       42.08019
O        110.01338       92.71338       40.90507
C        109.58880       90.30154       42.53200
C        108.09671       90.18720       42.46343
O        107.57984       89.14324       42.09962
O        107.32270       91.23170       42.78865
H        108.69926       92.02794       44.64086
H        111.20705       91.60440       42.98057
H        109.97127       89.50887       43.21210
H        109.99752       90.10552       41.51705
N        109.01670       93.92610       42.49444
C        108.71575       95.07512       41.63744
C        107.63783       94.90246       40.56716
O        107.41773       95.85844       39.83686
H        108.80663       94.02594       43.48900
H        109.65912       95.40635       41.15341
H        108.36518       95.90766       42.28518
N        106.91902       93.75729       40.40307
C        105.90656       93.56954       39.34718
C        104.62499       94.41872       39.49977
O        103.74827       94.28998       38.65614
C        105.54046       92.06991       39.26245
C        104.61603       91.59516       40.39015
N        104.73992       90.15102       40.57598
O        104.86349       92.29059       41.58018
H        107.15464       92.96171       41.00817
H        106.39167       93.81939       38.37775
H        106.48966       91.48835       39.25531
H        105.01370       91.84710       38.30906
H        104.62383       89.66647       39.65775
H        103.95250       89.83027       41.17906
N        104.43981       95.29655       40.53030
C        103.26724       96.15457       40.67365
C        102.08054       95.53108       41.40022
O        101.10658       96.24597       41.59389
H        105.20589       95.45742       41.18878
H        102.96573       96.55818       39.68218
H        103.56559       97.02804       41.29291
N        102.07173       94.24085       41.84452
C        100.95330       93.62878       42.57188
C        101.40509       93.06287       43.91995
O        102.58154       93.14560       44.24837
C        100.32736       92.50536       41.69855
C         99.64429       93.08624       40.45925
O        101.30118       91.57768       41.29064
H        102.88428       93.64814       41.64505
H        100.15805       94.37562       42.79231
H         99.52111       91.97555       42.25140
H        101.61662       91.10510       42.10394
H        100.37372       93.61204       39.80935
H         99.16940       92.26884       39.87554
H         98.84751       93.79999       40.76317
N        100.50677       92.42228       44.72958
C        100.85081       91.73157       45.97103
C        100.71059       90.23964       45.71139
O         99.64262       89.80519       45.29773
C         99.91318       92.15315       47.14605
C         99.94151       93.68269       47.38576
C        100.30292       91.38806       48.43371
C         98.92249       94.14418       48.43652
H         99.52604       92.35224       44.41781
H        101.90008       91.95653       46.26563
H         98.87167       91.87198       46.87069
H         99.68024       94.20125       46.43907
H        100.96017       94.00642       47.69139
H         99.60193       91.59503       49.26519
H        100.25943       90.29295       48.27636
H        101.33330       91.65639       48.75254
H         99.14944       93.73567       49.44172
H         98.94478       95.25046       48.51921
H         97.89708       93.83344       48.14086
N        101.75000       89.39142       45.94261
C        101.68634       87.95561       45.66907
C        101.22490       87.20152       46.88235
O        100.96194       87.81147       47.90710
C        103.07481       87.42933       45.26477
C        103.61898       88.27830       44.18573
O        104.68405       89.03105       44.46432
O        103.03455       88.39985       43.12083
H        102.62546       89.77953       46.32174
H        100.98231       87.76556       44.82777
H        103.04314       86.37517       44.92269
H        103.75990       87.49941       46.14037
N        101.10377       85.85111       46.84431
C        100.70957       85.07873       48.00447
C        101.73803       85.17771       49.14335
O        101.33086       85.57201       50.22464
C        100.43819       83.61263       47.62287
C         99.82316       82.88891       48.79032
C         98.54836       83.26427       49.25267
C        100.51593       81.85683       49.43957
C         97.98006       82.62143       50.35189
C         99.94417       81.21802       50.54383
C         98.67838       81.60046       50.99975
H        101.27758       85.36050       45.95198
H         99.74146       85.50146       48.35486
H        101.37494       83.12620       47.29234
H         99.72869       83.56163       46.76795
H         97.99416       84.05594       48.76258
H        101.50111       81.55934       49.10203
H         97.00003       82.91954       50.70140
H        100.48480       80.42955       51.04925
H         98.23801       81.10730       51.85543
N        103.07050       84.85345       49.00843
C        104.02935       84.91153       50.11080
C        104.19081       86.31807       50.65735
O        104.27757       86.46384       51.86989
C        105.31929       84.33687       49.50543
C        105.20387       84.69484       48.04321
C        103.72303       84.43199       47.78096
H        103.74298       84.24617       50.95578
H        106.26305       84.63283       50.01300
H        105.24556       83.22575       49.54592
H        105.40932       85.78010       47.93814
H        105.89526       84.15286       47.36307
H        103.43625       85.00968       46.88534
H        103.54721       83.34503       47.63600
N        104.18538       87.40358       49.83927
C        104.30240       88.77603       50.32293
C        103.17710       89.07975       51.29669
O        103.44974       89.46835       52.42358
C        104.27952       89.76488       49.13788
C        105.48726       89.54627       48.20275
C        105.48350       90.45539       47.01121
O        106.34659       90.32128       46.16088
O        104.53215       91.39220       46.84413
H        104.04801       87.24607       48.83215
H        105.27528       88.90623       50.84964
H        104.30870       90.80591       49.52623
H        103.33404       89.63391       48.56928
H        105.48773       88.51040       47.81074
H        106.43224       89.70096       48.76732
N        101.88272       88.87778       50.93591
C        100.77270       89.09667       51.83469
H         99.82160       88.82463       51.32744
H        100.88374       88.45721       52.73642
H        100.72820       90.16452       52.13168
H        101.67927       88.52574       49.99725
Ca       104.81215       90.87306       43.29735
O        104.18117       94.39416       46.34913
H        103.73673       93.87053       47.06106
H        103.82850       95.31209       46.45885
O        105.04327       94.91715       43.63104
H        105.93673       94.75371       43.23651
H        104.91880       95.89745       43.56644

Ca 1.0



