%chk=holoCaM.loop1.water2.frame30.chk
%nprocshared=20
%mem=10GB
%nosave
#b3lyp/svp scf=(tight,noincore,xqc) Test 
#IOP(5/87=12) Density=Current Pop=(MK,readradii) iop(6/33=2) iop(6/42=6)

holoCaM.loop1.water2.frame30 

   0  1 
C         70.26133       99.70670      -13.80196
C         70.94577       99.53792      -15.12422
O         71.52061      100.48897      -15.63454
H         69.18086       99.47311      -13.91649
H         70.70530       99.01043      -13.06025
H         70.36394      100.74829      -13.43255
N         70.90472       98.33046      -15.74753
C         71.49976       98.07768      -17.05392
C         70.88754       99.02112      -18.08855
O         69.67624       99.02890      -18.25463
C         71.32322       96.58292      -17.39550
C         71.86113       96.20287      -18.73851
O         71.13597       95.62762      -19.53133
O         73.14154       96.45672      -19.06513
H         70.41157       97.56031      -15.26702
H         72.59266       98.26351      -16.98934
H         70.24836       96.30202      -17.34467
H         71.87119       95.98927      -16.62954
N         71.69440       99.86594      -18.79843
C         71.23083      100.88696      -19.73730
C         71.51831      100.52541      -21.18374
O         71.21265      101.33045      -22.05284
C         71.79528      102.28524      -19.35439
C         73.32405      102.44768      -19.17902
C         74.20397      102.21587      -20.42092
C         75.68752      102.49799      -20.08341
N         76.56521      102.28870      -21.23479
H         72.70659       99.77210      -18.67441
H         70.12310      100.97564      -19.68996
H         71.35027      102.54875      -18.36973
H         71.43307      103.04108      -20.08468
H         73.65192      101.77939      -18.36749
H         73.49865      103.49087      -18.83535
H         73.88181      102.89524      -21.23873
H         74.10053      101.16672      -20.76071
H         76.02576      101.84004      -19.25794
H         75.79901      103.54680      -19.73316
H         76.31256      102.94406      -22.00841
H         77.55533      102.46536      -20.94651
H         76.49969      101.30437      -21.56924
N         72.00925       99.30342      -21.52948
C         72.18565       98.87102      -22.90999
C         71.18053       97.78389      -23.22536
O         70.44291       97.90212      -24.19328
C         73.60640       98.31402      -23.12382
C         74.67288       99.32321      -22.85126
O         74.72535      100.36143      -23.49082
O         75.59792       99.06604      -21.90932
H         72.21299       98.61861      -20.78913
H         72.02730       99.70824      -23.62622
H         73.71159       97.96508      -24.17408
H         73.77968       97.44786      -22.45110
N         71.12966       96.67492      -22.44351
C         70.32165       95.50221      -22.70855
C         71.21001       94.28241      -22.87048
O         70.67848       93.18905      -22.99968
H         71.74231       96.63379      -21.62052
H         69.69721       95.62272      -23.61955
H         69.64448       95.34297      -21.84217
N         72.57538       94.39006      -22.88229
C         73.47570       93.25658      -23.02964
C         73.37963       92.25466      -21.88350
O         73.88277       91.15274      -22.05204
C         74.93059       93.74583      -23.24413
C         75.49721       94.60668      -22.13894
O         74.78419       94.90765      -21.03731
O         76.61695       95.07234      -22.26600
H         73.00768       95.31874      -22.83593
H         73.17170       92.72364      -23.95763
H         74.94771       94.36004      -24.17142
H         75.59922       92.87312      -23.39916
N         72.75934       92.54782      -20.70114
C         72.53099       91.56142      -19.65468
C         73.35855       91.78007      -18.40664
O         73.15274       91.03123      -17.46152
H         72.40756       93.49957      -20.52903
H         72.76350       90.53373      -20.00952
H         71.44992       91.57960      -19.39944
N         74.36291       92.70353      -18.34326
C         75.27403       92.80740      -17.20371
C         75.37538       94.22584      -16.66234
O         74.80946       95.15172      -17.22427
C         76.67842       92.28488      -17.61449
C         76.68063       90.77215      -17.87654
O         77.18032       92.98788      -18.72376
H         74.55375       93.29188      -19.16361
H         74.91421       92.18125      -16.35778
H         77.39159       92.43341      -16.77740
H         76.74224       92.63735      -19.54372
H         75.99695       90.50476      -18.70885
H         77.70855       90.44184      -18.13777
H         76.36221       90.23138      -16.95970
N         76.10486       94.43931      -15.52989
C         76.33984       95.72899      -14.89481
C         77.83860       95.99664      -14.88377
O         78.60564       95.15773      -14.43170
C         75.70454       95.73968      -13.46980
C         74.15866       95.82699      -13.62367
C         76.23042       96.91327      -12.61338
C         73.38041       95.74195      -12.31087
H         76.53224       93.62130      -15.06905
H         75.85733       96.54914      -15.45340
H         75.98924       94.80144      -12.94430
H         73.80304       94.99758      -14.27098
H         73.89199       96.78704      -14.12321
H         75.81209       96.88395      -11.58846
H         77.33036       96.84257      -12.48440
H         75.98488       97.88903      -13.07484
H         73.58834       94.77656      -11.80551
H         73.62586       96.58182      -11.63058
H         72.29295       95.80579      -12.52930
N         78.30414       97.20331      -15.31323
C         79.70311       97.61369      -15.29308
C         79.91795       98.61674      -14.17312
O         78.99488       98.89608      -13.42178
C         80.09138       98.25096      -16.66248
C         80.00087       97.25852      -17.82277
O         79.32937       99.40892      -16.91932
H         77.61700       97.91111      -15.60089
H         80.37323       96.74978      -15.09165
H         81.15428       98.56489      -16.64216
H         78.47252       99.13764      -17.33905
H         80.31779       97.75791      -18.76394
H         80.67043       96.39250      -17.64120
H         78.95944       96.90330      -17.93273
N         81.12975       99.21415      -14.01627
C         81.37768      100.30292      -13.07675
C         80.47959      101.48912      -13.40457
O         79.87619      102.04644      -12.49996
C         82.86365      100.74320      -13.12105
C         83.79897       99.62320      -12.64542
O         83.21838      101.13869      -14.42227
H         81.89829       98.91835      -14.63379
H         81.16646       99.96706      -12.03585
H         82.97666      101.60439      -12.42064
H         84.02900      101.70575      -14.34271
H         83.53785       99.32119      -11.60900
H         83.73698       98.73181      -13.30318
H         84.84878       99.98413      -12.65075
N         80.34779      101.92440      -14.69101
C         79.52642      103.07209      -15.08081
C         78.02514      102.84896      -14.85794
O         77.28251      103.80730      -15.02176
C         79.77364      103.41897      -16.57178
C         81.24328      103.76641      -16.90202
C         81.69618      105.12805      -16.35230
C         83.18604      105.35599      -16.65486
N         83.60867      106.70104      -16.26698
H         80.87309      101.41965      -15.41882
H         79.83163      103.93937      -14.45756
H         79.13018      104.26712      -16.89439
H         79.48427      102.52821      -17.17232
H         81.34642      103.80661      -18.00819
H         81.92217      102.96829      -16.53986
H         81.55205      105.18794      -15.25363
H         81.08645      105.92240      -16.83643
H         83.38070      105.21943      -17.74160
H         83.78622      104.60262      -16.09552
H         83.41210      106.87066      -15.25424
H         84.63652      106.79681      -16.43527
H         83.10680      107.41021      -16.84970
N         77.50200      101.64048      -14.48487
C         76.08138      101.41596      -14.21238
C         75.82667      101.03374      -12.75553
O         74.66435      100.92105      -12.38973
C         75.52786      100.28641      -15.10461
C         75.69777      100.54378      -16.60286
C         75.02955       99.42370      -17.40699
O         75.60181       98.18163      -17.13696
O         75.15592       99.63390      -18.78131
H         78.12832      100.83894      -14.39301
H         75.50372      102.34551      -14.40798
H         74.44288      100.15809      -14.88915
H         76.04218       99.34106      -14.84549
H         76.77055      100.62347      -16.86787
H         75.20871      101.50667      -16.84380
N         76.84044      100.79916      -11.87228
C         76.63345      100.42011      -10.48978
H         75.55934      100.37034      -10.21659
H         77.08852       99.42247      -10.31298
H         77.13148      101.16126       -9.83013
H         77.81511      100.86716      -12.17467
Ca        75.97296       97.58319      -19.28885
O         78.36895       98.68088      -20.47841
H         78.73283       99.49008      -20.03995
H         78.29443       98.92391      -21.43470
O         78.15578       95.62718      -19.96415
H         77.60376       95.43457      -19.16504
H         78.47771       94.74202      -20.26615

Ca 1.0



