%chk=holoCaM.loop2.water3.frame377.chk
%nprocshared=20
%mem=10GB
%nosave
#b3lyp/svp scf=(tight,noincore,xqc) Test 
#IOP(5/87=12) Density=Current Pop=(MK,readradii) iop(6/33=2) iop(6/42=6)

holoCaM.loop2.water3.frame377 

   -2  1 
C        -14.47577        6.53681       80.92928
C        -15.03214        5.42174       81.76617
O        -14.89831        4.26964       81.37991
H        -13.37933        6.41079       80.81486
H        -14.95337        6.51714       79.92703
H        -14.67260        7.52826       81.38987
N        -15.68145        5.69236       82.93227
C        -16.27228        4.65895       83.77408
C        -17.35742        3.90853       83.00566
O        -18.18633        4.55120       82.37601
C        -16.82993        5.28755       85.06863
C        -17.32677        4.20850       85.97642
O        -16.49248        3.21943       86.33180
O        -18.48540        4.19038       86.34961
H        -15.75897        6.67712       83.23219
H        -15.46719        3.95318       84.07889
H        -17.64102        6.01310       84.83849
H        -16.01072        5.82494       85.59543
N        -17.40539        2.54160       83.01519
C        -18.32346        1.76202       82.18722
C        -19.63268        1.40781       82.87915
O        -20.52515        0.92934       82.19314
C        -17.61730        0.51052       81.66567
H        -16.73766        2.03361       83.60470
H        -18.59845        2.37784       81.30287
H        -16.69057        0.79970       81.12420
H        -17.35154       -0.15555       82.51380
H        -18.27352       -0.04897       80.96712
N        -19.85638        1.67696       84.19643
C        -21.18606        1.62948       84.80915
C        -21.64107        3.06028       85.14476
O        -22.73636        3.22578       85.66209
C        -21.22177        0.64485       86.00674
C        -20.18570        0.96826       87.02791
O        -19.17699        0.11373       87.26152
O        -20.16963        2.06653       87.55159
H        -19.08081        2.03818       84.77116
H        -21.94167        1.24715       84.08961
H        -21.02325       -0.38056       85.62353
H        -22.22818        0.64393       86.47786
N        -20.88383        4.14605       84.78439
C        -21.29492        5.53692       84.87835
C        -21.39638        6.13230       86.26457
O        -21.66204        7.32437       86.33135
H        -19.98865        4.00797       84.30124
H        -22.25705        5.67016       84.34110
H        -20.52869        6.14662       84.34766
N        -21.21629        5.41825       87.41072
C        -21.33047        6.04625       88.72294
C        -20.19779        7.03762       88.94279
O        -20.48278        8.21451       89.12422
C        -21.38848        4.99064       89.84702
C        -22.63569        4.14311       89.71576
N        -22.55999        2.80077       89.56842
O        -23.73277        4.68170       89.74722
H        -21.03051        4.41008       87.35776
H        -22.29532        6.60275       88.76950
H        -21.43459        5.50469       90.83173
H        -20.47607        4.35872       89.83154
H        -21.65156        2.31933       89.55390
H        -23.41883        2.23808       89.47310
N        -18.89124        6.64191       88.95065
C        -17.81768        7.60220       89.19024
C        -16.39477        7.05603       89.32465
O        -15.53594        7.87432       89.62129
H        -18.70064        5.64847       88.80261
H        -18.03495        8.10940       90.15784
H        -17.83166        8.37321       88.38912
N        -16.05042        5.73448       89.19435
C        -14.71971        5.22034       89.52707
C        -14.11777        4.43929       88.36501
O        -14.64309        3.39866       88.01313
C        -14.86406        4.31133       90.76736
C        -13.53170        3.72849       91.23798
O        -15.43677        5.05294       91.81508
H        -16.75161        5.03788       88.93432
H        -14.03704        6.05714       89.79250
H        -15.53917        3.46889       90.48797
H        -16.03230        4.43816       92.31881
H        -13.05865        3.12223       90.43777
H        -12.83946        4.54281       91.53563
H        -13.71231        3.06506       92.10979
N        -12.99771        4.87934       87.73129
C        -12.38558        4.17999       86.59872
C        -11.62289        2.94362       87.06884
O        -10.79046        3.06131       87.95638
C        -11.43247        5.14525       85.82291
C        -12.24806        6.34005       85.25407
C        -10.70640        4.40430       84.67698
C        -11.37904        7.43762       84.63976
H        -12.59296        5.77706       88.03737
H        -13.17282        3.88888       85.86612
H        -10.66399        5.52838       86.53096
H        -12.82589        6.82704       86.06554
H        -12.97688        5.97451       84.49666
H        -10.01286        5.06780       84.12678
H        -10.07243        3.59375       85.08273
H        -11.43791        3.97099       83.95991
H        -10.67129        7.82943       85.40116
H        -10.81262        7.07653       83.75960
H        -12.02977        8.27009       84.29962
N        -11.76209        1.75914       86.39929
C        -10.90145        0.59508       86.61704
C         -9.93103        0.46298       85.44808
O        -10.06126        1.18673       84.47504
C        -11.73981       -0.69410       86.72762
C        -12.72107       -0.65580       87.85687
O        -12.28906       -0.53477       89.12612
O        -13.91498       -0.76735       87.63076
H        -12.41548        1.72322       85.61047
H        -10.29418        0.73408       87.53730
H        -11.07400       -1.56754       86.89166
H        -12.28824       -0.85200       85.77107
N         -8.89924       -0.42937       85.49430
C         -7.92993       -0.56710       84.40756
C         -8.59118       -1.04879       83.12030
O         -8.37080       -0.39510       82.10827
C         -6.73182       -1.44796       84.83063
C         -5.72296       -1.63054       83.71499
C         -5.09348       -0.52445       83.11163
C         -5.40238       -2.92437       83.26750
C         -4.16978       -0.71424       82.07818
C         -4.47379       -3.10865       82.23924
C         -3.85938       -2.00503       81.64355
H         -8.77942       -0.99945       86.34417
H         -7.49166        0.43699       84.21107
H         -7.07415       -2.43491       85.18593
H         -6.22551       -0.96050       85.69177
H         -5.31644        0.48443       83.43311
H         -5.86918       -3.79273       83.71510
H         -3.69318        0.13976       81.61391
H         -4.23130       -4.10869       81.90403
H         -3.14233       -2.15062       80.84586
N         -9.41689       -2.13992       83.03999
C        -10.11772       -2.53850       81.82424
C        -10.88776       -1.38887       81.19522
O        -10.79122       -1.16673       79.99819
C        -11.11903       -3.60037       82.31461
C        -10.37560       -4.22452       83.46675
C         -9.78497       -2.99837       84.15061
H         -9.38827       -2.98303       81.11058
H        -12.01348       -3.11585       82.77029
H        -11.47445       -4.29974       81.52869
H        -10.98565       -4.87154       84.13286
H         -9.54066       -4.82581       83.04100
H        -10.53984       -2.47037       84.76841
H         -8.93995       -3.33931       84.76936
N        -11.68630       -0.62319       81.98773
C        -12.55695        0.44606       81.51008
C        -11.77615        1.58811       80.87905
O        -12.32738        2.26918       80.02545
C        -13.40441        0.97933       82.68428
C        -14.29098       -0.12903       83.29938
C        -15.00396        0.30563       84.54466
O        -14.80400        1.52777       85.06875
O        -15.75649       -0.47213       85.10809
H        -11.67798       -0.83599       82.99462
H        -13.24829        0.02402       80.74677
H        -14.06016        1.80990       82.34168
H        -12.70686        1.38044       83.44575
H        -13.70071       -1.01730       83.59311
H        -15.02524       -0.45499       82.53679
N        -10.49967        1.86896       81.26374
C         -9.69465        2.92997       80.69498
H         -8.77660        2.49072       80.24962
H        -10.23171        3.49470       79.90515
H         -9.39719        3.63632       81.49820
H        -10.06520        1.30724       82.00183
Ca       -17.29104        1.26678       87.06139
O        -17.88114        2.82194       89.54338
H        -18.45439        3.35346       88.93853
H        -18.36564        1.96743       89.65489
O        -16.75375       -1.47445       88.56161
H        -16.04283       -2.15637       88.65919
H        -17.53333       -1.97758       88.21676
O        -15.09709        0.90494       89.81985
H        -14.76192        0.74977       90.73776
H        -14.31418        1.26583       89.33488

Ca 1.0



