%chk=holoCaM.loop4.water3.frame341.chk
%nprocshared=20
%mem=10GB
%nosave
#b3lyp/svp scf=(tight,noincore,xqc) Test 
#IOP(5/87=12) Density=Current Pop=(MK,readradii) iop(6/33=2) iop(6/42=6)

holoCaM.loop4.water3.frame341 

   -3  1 
C          5.04278       29.68219       -2.62577
C          6.43065       29.62827       -3.16869
O          6.84876       28.54846       -3.55270
H          4.34520       29.24872       -3.37495
H          4.98876       29.08597       -1.69142
H          4.74343       30.72860       -2.42231
N          7.21263       30.74956       -3.22293
C          8.54064       30.73899       -3.81526
C          9.43445       31.88582       -3.29909
O          8.92898       32.93689       -2.93683
C          8.38227       30.82818       -5.35699
C          9.60633       30.40086       -6.07401
O          9.70828       30.54328       -7.28213
O         10.45931       29.64024       -5.37534
H          6.84242       31.62769       -2.83960
H          9.01345       29.77916       -3.50482
H          8.09640       31.86123       -5.64104
H          7.59655       30.12849       -5.71366
N         10.78991       31.72083       -3.24069
C         11.77947       32.71095       -2.79876
C         12.82732       32.96044       -3.90304
O         13.31541       34.07773       -4.01078
C         12.51325       32.19977       -1.50403
C         11.50584       31.88320       -0.36777
C         13.53986       33.24820       -1.00734
C         12.12494       31.14040        0.82868
H         11.14241       30.80320       -3.49661
H         11.28122       33.67317       -2.54295
H         13.05181       31.25785       -1.75457
H         10.71375       31.21837       -0.75476
H         11.02621       32.82308       -0.02145
H         14.04476       32.94023       -0.07209
H         14.35043       33.40247       -1.74698
H         13.03402       34.22073       -0.82022
H         12.93637       31.70901        1.32252
H         11.34173       30.96160        1.59514
H         12.52603       30.15486        0.50674
N         13.31337       31.91943       -4.64930
C         14.48666       31.96315       -5.52212
C         14.21989       31.54502       -6.97632
O         15.11812       31.71196       -7.79074
C         15.59051       31.07027       -4.88852
C         15.23804       29.61893       -4.64792
O         14.05191       29.11474       -4.98948
O         16.03872       28.88954       -4.09233
H         12.87785       31.01039       -4.52852
H         14.88059       33.00417       -5.55962
H         15.83474       31.50053       -3.89453
H         16.50163       31.08849       -5.52010
N         13.03513       31.00526       -7.38628
C         12.73602       30.65720       -8.77370
C         13.59146       29.55292       -9.37239
O         13.69088       29.49594      -10.58996
H         12.28971       30.86060       -6.69885
H         12.80009       31.57070       -9.40322
H         11.68904       30.29852       -8.84366
N         14.20224       28.61620       -8.59645
C         14.98247       27.50159       -9.14658
C         14.13305       26.46684       -9.89404
O         14.64084       25.81733      -10.79761
C         15.82996       26.81414       -8.05290
C         15.11260       26.29648       -6.84064
O         13.92286       26.46803       -6.67243
O         15.82896       25.69772       -5.87820
H         14.11380       28.71197       -7.57733
H         15.72320       27.91805       -9.86398
H         16.56127       27.55215       -7.66668
H         16.38366       25.97020       -8.51551
N         12.85125       26.23029       -9.51414
C         11.94735       25.24386      -10.09672
C         11.45923       24.21802       -9.08093
O         10.78191       23.28638       -9.49125
H         12.51690       26.79299       -8.74383
H         12.44775       24.69939      -10.92562
H         11.05810       25.76223      -10.51718
N         11.78036       24.29892       -7.75475
C         11.46586       23.27710       -6.76553
C         10.72023       23.87177       -5.57945
O         10.69502       25.08639       -5.45471
C         12.79325       22.68464       -6.24173
C         13.78106       22.29192       -7.35433
C         14.99082       21.63986       -6.74049
N         16.01962       22.38470       -6.27645
O         15.02846       20.42428       -6.63481
H         12.32355       25.08836       -7.42117
H         10.84860       22.48007       -7.23057
H         12.55856       21.79830       -5.61383
H         13.31112       23.44043       -5.60702
H         14.10324       23.19116       -7.93089
H         13.30274       21.59354       -8.07237
H         16.00741       23.40475       -6.37312
H         16.83519       21.94273       -5.82796
N         10.16439       23.07116       -4.61899
C          9.57331       23.60050       -3.39065
C         10.46208       23.20945       -2.23053
O         10.85408       22.05877       -2.10155
C          8.09085       23.19967       -3.17016
C          7.52201       23.92527       -1.92556
C          7.25347       23.59467       -4.39137
H         10.20973       22.04782       -4.73548
H          9.54814       24.70867       -3.44264
H          7.99281       22.10264       -3.02033
H          8.01012       23.56911       -0.99436
H          7.67860       25.02357       -2.00445
H          6.43019       23.75109       -1.81992
H          7.34559       24.68372       -4.59531
H          7.59195       23.02722       -5.28238
H          6.18322       23.35283       -4.21706
N         10.81886       24.16849       -1.34664
C         11.78463       24.03083       -0.27775
C         11.08185       23.84715        1.05190
O          9.87167       23.91630        1.12013
C         12.66029       25.32597       -0.33967
C         13.72295       25.51174        0.70841
N         14.64004       24.55279        0.95144
O         13.76901       26.56065        1.33362
H         10.38444       25.08155       -1.45568
H         12.40390       23.12582       -0.43812
H         11.99689       26.22326       -0.29189
H         13.16089       25.34308       -1.32787
H         14.61169       23.66177        0.43752
H         15.34504       24.68609        1.69066
N         11.81365       23.60474        2.16617
C         11.31244       23.66691        3.53273
C         10.65919       25.02158        3.78553
O          9.56468       25.07461        4.32894
C         12.52324       23.56136        4.49794
C         13.03790       22.17079        4.76618
C         12.20753       21.25314        5.42800
C         14.36251       21.80630        4.46423
C         12.69769       20.00452        5.81430
C         14.85180       20.55254        4.85237
C         14.02330       19.65405        5.54231
O         14.49256       18.46204        5.96281
H         12.81617       23.44686        2.03836
H         10.56415       22.87079        3.74630
H         12.23984       23.95251        5.49620
H         13.34146       24.21928        4.12162
H         11.18944       21.52151        5.67983
H         15.02638       22.49707        3.95883
H         12.05171       19.32099        6.35051
H         15.88035       20.28858        4.63879
H         15.41490       18.19815        5.83588
N         11.32823       26.16066        3.46092
C         10.88314       27.51138        3.79314
C          9.76164       28.03416        2.88265
O          9.27930       29.13427        3.11089
C         12.08427       28.48809        3.73323
C         13.34557       28.02146        4.49978
C         13.06900       27.61187        5.91804
O         13.33107       26.47714        6.28701
O         12.54063       28.48916        6.79020
H         12.24418       26.03727        3.02788
H         10.52600       27.49775        4.84666
H         11.75221       29.46481        4.14527
H         12.38656       28.64292        2.67435
H         14.08909       28.84535        4.49239
H         13.81960       27.16582        3.97414
N          9.30215       27.29653        1.83690
C          8.24660       27.68693        0.90048
C          7.00431       26.86652        1.21485
O          5.92617       27.43148        1.32997
C          8.75615       27.42995       -0.53829
C          9.88583       28.41487       -0.90480
C         10.70773       28.07141       -2.12117
O         11.63413       28.79754       -2.43417
O         10.49556       26.95739       -2.83523
H          9.72391       26.37500        1.68294
H          7.96850       28.76147        0.98867
H          7.94369       27.51649       -1.29168
H          9.10536       26.39150       -0.55051
H         10.61025       28.47942       -0.06984
H          9.41275       29.40729       -1.05520
N          7.09567       25.52454        1.40594
C          5.99824       24.67273        1.79431
H          5.15197       24.78831        1.09010
H          6.33895       23.61323        1.77058
H          5.68525       24.90540        2.83480
H          7.99910       25.07833        1.30533
Ca        12.12861       28.21600       -5.52314
O          9.25065       27.33041       -5.24962
H          8.63401       27.40747       -4.48807
H          8.78557       26.74410       -5.89220
O         13.88116       26.33606       -3.66612
H         14.38046       25.52943       -3.94383
H         14.58666       26.99001       -3.44136
O         10.65506       27.57000       -7.86579
H         10.20966       28.28648       -7.38038
H         10.57898       27.84539       -8.81190

Ca 1.0



