%chk=holoCaM.loop2.water0.frame46.chk
%nprocshared=20
%mem=10GB
%nosave
#b3lyp/svp scf=(tight,noincore,xqc) Test 
#IOP(5/87=12) Density=Current Pop=(MK,readradii) iop(6/33=2) iop(6/42=6)

holoCaM.loop2.water0.frame46 

   -2  1 
C         88.25787       94.20375       14.20863
C         87.33682       95.38503       14.34918
O         86.20672       95.31947       13.88840
H         89.24792       94.40243       14.67383
H         87.81178       93.32512       14.72188
H         88.41464       93.96283       13.13800
N         87.74756       96.48953       15.02798
C         86.88719       97.63141       15.31298
C         86.61006       98.46526       14.05578
O         87.55640       98.78772       13.35116
C         87.54399       98.48698       16.42680
C         86.55344       99.47677       16.93993
O         86.06520      100.26514       16.16536
O         86.01453       99.35793       18.16263
H         88.69571       96.47873       15.43611
H         85.93513       97.24852       15.74737
H         88.46118       98.99658       16.06153
H         87.81706       97.81991       17.27287
N         85.34411       98.90492       13.75614
C         85.02018       99.70423       12.57029
C         84.49455      101.11761       12.86471
O         84.37938      101.87337       11.90888
C         83.96352       98.95707       11.74323
H         84.58009       98.65905       14.39595
H         85.93072       99.82816       11.94541
H         84.32452       97.94342       11.47141
H         83.02494       98.84946       12.33268
H         83.72389       99.50791       10.80795
N         84.08515      101.53409       14.10333
C         83.44457      102.83752       14.33937
C         84.02545      103.64083       15.51540
O         83.49605      104.70589       15.80169
C         81.92156      102.62176       14.46994
C         81.53076      101.59299       15.49347
O         81.82157      101.77151       16.78958
O         80.93468      100.58572       15.14759
H         84.09685      100.86317       14.88085
H         83.56423      103.50222       13.45486
H         81.55007      102.27466       13.48017
H         81.41544      103.58645       14.69067
N         85.13985      103.25050       16.19293
C         85.78677      104.03875       17.23521
C         85.03681      104.17286       18.55042
O         85.55243      104.87176       19.41222
H         85.62696      102.41503       15.88233
H         86.00123      105.05021       16.83009
H         86.76245      103.56409       17.48369
N         83.85346      103.54410       18.81378
C         83.15793      103.69234       20.09622
C         83.92336      103.09687       21.29026
O         83.45849      103.26525       22.40945
C         81.71541      103.12921       20.03126
C         81.59698      101.64073       19.81849
N         80.37673      101.06027       19.83125
O         82.58730      100.95199       19.63543
H         83.42316      102.97665       18.07783
H         83.03974      104.78395       20.28113
H         81.16025      103.64255       19.21547
H         81.20490      103.37477       20.98812
H         79.52508      101.62093       19.98094
H         80.28586      100.04441       19.70486
N         85.09620      102.40834       21.14395
C         85.89859      101.93128       22.26378
C         85.57362      100.51583       22.70583
O         86.28863      100.00481       23.55605
H         85.49858      102.27305       20.20802
H         85.84245      102.63885       23.12095
H         86.95913      101.92964       21.93303
N         84.51089       99.82723       22.20484
C         84.13960       98.46946       22.60323
C         83.97654       97.57614       21.37436
O         84.22136       98.03017       20.27074
C         82.82416       98.53902       23.42510
C         83.05600       99.25957       24.75652
O         81.81388       99.20791       22.71306
H         83.88950      100.30072       21.54053
H         84.91720       98.00390       23.24856
H         82.47458       97.52096       23.70180
H         81.54327       98.61625       21.96418
H         82.11958       99.26306       25.35272
H         83.83892       98.73104       25.34366
H         83.37681      100.30979       24.59489
N         83.52106       96.29644       21.49748
C         83.21157       95.40850       20.37814
C         81.69697       95.22838       20.29688
O         81.06602       94.86647       21.28049
C         83.99832       94.05794       20.52078
C         85.43540       94.25483       19.95776
C         83.29604       92.88994       19.79773
C         86.34440       93.02593       20.05907
H         83.31640       95.93629       22.44088
H         83.50897       95.85956       19.40696
H         84.03406       93.76975       21.59473
H         85.92854       95.09230       20.49473
H         85.36846       94.52896       18.87941
H         83.83133       91.93313       19.95488
H         82.28450       92.71814       20.22118
H         83.21198       93.09642       18.71542
H         85.95168       92.17200       19.46948
H         87.34041       93.27207       19.63321
H         86.46997       92.72262       21.11814
N         81.07338       95.40352       19.09282
C         79.65795       95.16003       18.82783
C         79.48742       93.76683       18.24198
O         80.47241       93.05714       18.14359
C         79.14289       96.22100       17.83335
C         79.32185       97.61119       18.36435
O         78.70555       97.98340       19.50233
O         80.02048       98.41084       17.76153
H         81.65875       95.61335       18.27417
H         79.06885       95.20515       19.77025
H         78.06458       96.06855       17.62278
H         79.69929       96.12085       16.87290
N         78.27064       93.27800       17.86590
C         78.09828       91.91168       17.37140
C         78.88634       91.63562       16.07751
O         79.71590       90.73973       16.13365
C         76.60318       91.53875       17.25214
C         76.42706       90.15312       16.67651
C         76.89753       89.02278       17.36768
C         75.80882       89.98457       15.42526
C         76.75135       87.74742       16.81386
C         75.66938       88.70833       14.87370
C         76.13961       87.59050       15.56730
H         77.43799       93.87550       17.98359
H         78.50546       91.22753       18.15121
H         76.06529       92.27282       16.63535
H         76.12277       91.59071       18.25300
H         77.37756       89.12775       18.33233
H         75.44675       90.84081       14.86959
H         77.11565       86.88069       17.34984
H         75.19980       88.58709       13.90620
H         76.03137       86.60317       15.13785
N         78.71534       92.30565       14.88706
C         79.49990       92.03200       13.67939
C         80.99150       91.96278       13.93027
O         81.65906       91.05679       13.45182
C         79.21148       93.25094       12.78707
C         77.78104       93.55056       13.13528
C         77.79221       93.40138       14.65481
H         79.12964       91.09709       13.20286
H         79.79674       94.13634       13.12896
H         79.42464       93.09292       11.70830
H         77.38918       94.52288       12.76857
H         77.16379       92.72984       12.70112
H         78.17500       94.30734       15.17373
H         76.75107       93.19738       14.93864
N         81.56285       92.92479       14.69338
C         82.98552       93.05152       14.97377
C         83.49940       91.80303       15.67605
O         84.48284       91.22971       15.22967
C         83.21255       94.34217       15.79871
C         82.73263       95.58813       15.00051
C         82.81494       96.87698       15.75222
O         83.34985       96.92907       16.97762
O         82.42363       97.90533       15.22522
H         80.91776       93.60805       15.11447
H         83.54930       93.17806       14.02233
H         84.29186       94.45357       16.04476
H         82.64432       94.26337       16.74634
H         81.67201       95.50035       14.70522
H         83.33663       95.68059       14.07234
N         82.83824       91.28836       16.74580
C         83.23756       90.07369       17.42031
H         84.24207       90.20009       17.87310
H         82.50917       89.83856       18.22783
H         83.24651       89.22567       16.70323
H         81.99137       91.75395       17.07163
Ca        83.85105       98.93463       17.81937

Ca 1.0



