%chk=holoCaM-CaMKII.loop3.water2.frame102.chk
%nprocshared=20
%mem=10GB
%nosave
#b3lyp/svp scf=(tight,noincore,xqc) Test 
#IOP(5/87=12) Density=Current Pop=(MK,readradii) iop(6/33=2) iop(6/42=6)

holoCaM-CaMKII.loop3.water2.frame102 

   0  1 
C         30.14740       35.43647       56.23541
C         30.67925       35.11662       57.60486
O         31.33162       34.09824       57.76894
H         29.55940       36.38012       56.23710
H         30.99479       35.56303       55.52874
H         29.49113       34.61584       55.88205
N         30.46526       35.97675       58.63387
C         31.00587       35.79624       59.97787
C         30.30779       34.64028       60.69846
O         29.08439       34.61913       60.69421
C         30.81860       37.12439       60.74319
C         31.58560       37.21065       62.02432
O         31.50439       38.33254       62.75570
O         32.32158       36.31037       62.38539
H         29.93786       36.84108       58.42966
H         32.10142       35.62692       59.89799
H         29.73886       37.30588       60.93361
H         31.20663       37.95522       60.11258
N         31.00804       33.67504       61.37781
C         30.36054       32.54089       62.04806
C         30.30729       32.67318       63.56958
O         29.61321       31.85665       64.16146
C         31.05529       31.20535       61.69090
C         31.00185       30.85024       60.19732
C         31.79296       29.56651       59.86076
C         31.25437       28.28668       60.52334
N         32.06252       27.12805       60.13717
H         32.03013       33.75961       61.44434
H         29.29573       32.48431       61.73015
H         30.55605       30.38968       62.25525
H         32.11617       31.26080       62.02112
H         31.45418       31.68230       59.61673
H         29.94392       30.73539       59.87523
H         32.85185       29.69389       60.16281
H         31.76426       29.42761       58.75839
H         30.19986       28.12196       60.21129
H         31.28578       28.37885       61.62959
H         31.67522       26.26922       60.59077
H         32.04316       27.00100       59.09929
H         33.05104       27.25752       60.45554
N         30.96084       33.64613       64.27868
C         30.76861       33.82291       65.72423
C         30.14374       35.17313       66.05647
O         29.34941       35.22243       66.98556
C         31.99314       33.46699       66.61192
C         33.22508       34.32952       66.57631
O         33.38470       35.31121       65.68470
O         34.13289       34.09579       67.35811
H         31.57659       34.29133       63.77618
H         30.02049       33.07867       66.07506
H         32.30439       32.42251       66.39131
H         31.63733       33.49523       67.66527
N         30.42665       36.30179       65.34033
C         29.80672       37.59711       65.59236
C         30.79975       38.64465       66.06347
O         30.37513       39.75904       66.33369
H         31.10663       36.25554       64.57523
H         29.02420       37.51573       66.37659
H         29.30880       37.94219       64.66060
N         32.12111       38.35428       66.24435
C         33.07303       39.26855       66.86811
C         33.35931       40.52871       66.06307
O         33.99781       41.42117       66.60270
C         34.39113       38.52427       67.19768
C         35.23798       38.18840       65.98522
N         36.52964       38.58630       65.92424
O         34.76754       37.54425       65.06093
H         32.44225       37.40985       66.03091
H         32.61743       39.56747       67.83818
H         34.13788       37.58246       67.73250
H         34.99026       39.14625       67.89550
H         36.95744       39.12083       66.69355
H         37.11145       38.35147       65.10759
N         32.96292       40.65852       64.76534
C         33.21550       41.83939       63.95898
C         34.15049       41.56780       62.80037
O         34.36685       42.49540       62.03177
H         32.47018       39.88549       64.30808
H         33.66898       42.65682       64.56092
H         32.24283       42.20855       63.57054
N         34.79451       40.37030       62.63127
C         35.78305       40.15264       61.57937
C         35.44418       38.93498       60.73160
O         34.55343       38.17052       61.08053
C         37.19332       39.96242       62.19672
C         37.66159       41.13404       63.03995
C         38.74237       41.92491       62.61138
C         37.04870       41.43879       64.27050
C         39.18524       43.00269       63.38597
C         37.49420       42.51221       65.04417
C         38.56021       43.30030       64.60523
O         38.97533       44.33570       65.36246
H         34.64097       39.60509       63.30424
H         35.82113       41.03198       60.90030
H         37.91146       39.81042       61.36225
H         37.22355       39.04301       62.81913
H         39.24137       41.71332       61.67416
H         36.22962       40.84710       64.64660
H         40.01462       43.60492       63.03771
H         37.00919       42.72918       65.98804
H         39.70743       44.90894       65.09444
N         36.15562       38.69578       59.59276
C         36.02161       37.50504       58.75967
C         37.39234       36.84866       58.68678
O         38.34532       37.52304       58.31485
C         35.54060       37.85817       57.31719
C         34.20661       38.64594       57.33032
C         35.38771       36.55928       56.48749
C         33.80266       39.15466       55.93992
H         36.85846       39.39548       59.30511
H         35.27625       36.80151       59.19281
H         36.31283       38.50396       56.84284
H         34.32052       39.54388       57.97312
H         33.38979       38.01821       57.75055
H         36.34083       36.00026       56.44433
H         34.61297       35.89816       56.93566
H         35.11487       36.76379       55.43499
H         32.87521       39.75866       56.01629
H         34.60725       39.79670       55.52026
H         33.59747       38.32531       55.23412
N         37.55669       35.52496       58.95546
C         38.83656       34.83522       58.80708
C         38.82460       33.98375       57.54960
O         37.82792       33.97829       56.84904
C         39.13543       34.00823       60.06705
O         38.19031       32.98514       60.23422
H         36.72455       34.96742       59.19185
H         39.66224       35.56917       58.68018
H         39.16664       34.67216       60.96231
H         40.13929       33.54176       59.99525
H         37.48162       33.34275       60.82827
N         39.91872       33.27093       57.16741
C         39.96654       32.48953       55.93235
C         38.92770       31.38068       55.92156
O         38.13909       31.31920       54.98907
C         41.36211       31.89165       55.73646
H         40.76104       33.31243       57.76188
H         39.78197       33.16684       55.06721
H         42.11373       32.70815       55.68309
H         41.62770       31.21458       56.57535
H         41.40067       31.32131       54.78349
N         38.86704       30.47412       56.93734
C         37.90700       29.37146       56.98690
C         36.48026       29.86724       56.85411
O         35.73485       29.33076       56.04637
C         38.06437       28.59859       58.30222
H         39.52776       30.58714       57.72204
H         38.11516       28.66013       56.15708
H         37.35387       27.74455       58.33252
H         39.09615       28.19431       58.38198
H         37.87042       29.25738       59.17610
N         36.05327       30.92652       57.59018
C         34.70551       31.48596       57.50922
C         34.35189       31.86315       56.08393
O         33.34311       31.39103       55.57797
C         34.59260       32.72298       58.42022
C         34.75262       32.32688       59.89040
C         34.63604       33.46139       60.84630
O         34.68749       33.16453       62.14935
O         34.44053       34.61031       60.48279
H         36.74397       31.37284       58.21177
H         33.96637       30.72908       57.85787
H         33.59184       33.18295       58.29647
H         35.35856       33.47229       58.13296
H         35.72387       31.83317       60.07952
H         33.95020       31.61339       60.14762
N         35.15054       32.69391       55.36734
C         34.86359       33.06984       54.00350
H         33.90584       33.62873       53.96072
H         35.67715       33.72048       53.61685
H         34.80183       32.16260       53.36596
H         36.00415       33.05621       55.79642
Ca        34.06734       34.61404       63.69916
O         37.43516       36.13629       63.46464
H         38.04887       35.85770       64.19035
H         38.02676       36.54169       62.78222
O         36.62738       33.45128       64.71157
H         36.23552       32.66159       64.26157
H         36.31020       33.38571       65.64677

Ca 1.0



