%chk=holoCaM.loop2.water1.frame56.chk
%nprocshared=20
%mem=10GB
%nosave
#b3lyp/svp scf=(tight,noincore,xqc) Test 
#IOP(5/87=12) Density=Current Pop=(MK,readradii) iop(6/33=2) iop(6/42=6)

holoCaM.loop2.water1.frame56 

   -2  1 
C         88.24904       26.74345       35.26767
C         88.12716       28.21574       34.99681
O         88.13728       28.62114       33.84340
H         89.15721       26.55569       35.88024
H         87.35841       26.38699       35.82679
H         88.33571       26.16801       34.32182
N         88.01790       29.08232       36.04027
C         87.93881       30.53301       35.88864
C         89.18583       31.05852       35.19951
O         90.28746       30.81062       35.66939
C         87.72506       31.17982       37.26406
C         87.72708       32.68749       37.26349
O         88.59387       33.23590       37.92332
O         86.80427       33.47180       36.64073
H         88.00076       28.68122       36.99181
H         87.06077       30.78960       35.28815
H         88.55064       30.83601       37.92754
H         86.77591       30.81680       37.70663
N         89.06176       31.80409       34.06546
C         90.17502       32.31620       33.28483
C         90.24059       33.83728       33.30229
O         91.15596       34.36733       32.68756
C         90.02069       31.82163       31.84003
H         88.11965       32.02283       33.72743
H         91.13901       31.93811       33.68882
H         89.07569       32.21132       31.39906
H         90.86958       32.16376       31.21084
H         89.98803       30.71197       31.81410
N         89.33190       34.60895       33.97704
C         89.38917       36.07081       33.99498
C         89.63533       36.63852       35.39113
O         89.86739       37.83626       35.48505
C         88.12905       36.65342       33.32548
C         86.84590       36.22334       33.98451
O         86.58500       36.56391       35.25912
O         86.02511       35.57387       33.35611
H         88.56182       34.15783       34.48945
H         90.25587       36.41931       33.39200
H         88.11823       36.30916       32.26729
H         88.18111       37.76314       33.31823
N         89.64213       35.85565       36.50952
C         90.06867       36.32439       37.82023
C         88.98010       36.39935       38.87267
O         89.33304       36.69242       40.00650
H         89.40832       34.86307       36.42737
H         90.51357       37.34104       37.75974
H         90.87167       35.64213       38.17354
N         87.64947       36.24911       38.59686
C         86.63712       36.57268       39.60469
C         86.42733       35.45809       40.61814
O         86.29632       35.75370       41.79817
C         85.32454       37.09987       38.99744
C         84.38476       36.04126       38.50514
N         83.15481       35.93032       39.06115
O         84.72011       35.29090       37.60352
H         87.35446       36.07503       37.62724
H         86.99878       37.47853       40.14370
H         85.55182       37.82129       38.18188
H         84.79913       37.67120       39.79410
H         82.85468       36.55454       39.82483
H         82.48897       35.22795       38.72824
N         86.41091       34.15013       40.22679
C         86.29154       33.02742       41.14348
C         85.16646       32.06316       40.80698
O         85.04624       31.08447       41.52579
H         86.55253       33.93659       39.23388
H         86.14627       33.37497       42.18954
H         87.24346       32.45384       41.11087
N         84.30511       32.25412       39.75794
C         83.20179       31.33063       39.46093
C         83.34313       30.75407       38.05826
O         84.29465       31.07939       37.36968
C         81.84242       32.04850       39.63313
C         81.71275       32.69128       41.01710
O         81.67117       33.03240       38.64931
H         84.40370       33.08494       39.16165
H         83.20964       30.47455       40.16834
H         81.01705       31.30271       39.56120
H         81.21980       32.60482       37.87509
H         80.71255       33.16094       41.12242
H         81.83163       31.92326       41.81082
H         82.48206       33.48032       41.16166
N         82.40229       29.88612       37.57060
C         82.48968       29.27792       36.24768
C         81.36612       29.80586       35.37247
O         80.20009       29.55998       35.63956
C         82.47431       27.72887       36.36941
C         83.73872       27.26772       37.13956
C         82.39642       27.05934       34.98234
C         83.76159       25.77194       37.44936
H         81.59045       29.64409       38.15333
H         83.44813       29.55327       35.76282
H         81.56596       27.43241       36.94018
H         83.78763       27.79561       38.11568
H         84.65011       27.53463       36.55876
H         81.47054       27.36172       34.45428
H         83.27408       27.33303       34.36056
H         82.33679       25.95781       35.07011
H         84.67634       25.53556       38.03200
H         82.87181       25.49574       38.05362
H         83.78849       25.16113       36.52558
N         81.68980       30.56011       34.28547
C         80.73315       31.09293       33.32128
C         80.32579       29.97889       32.36881
O         80.84828       28.88274       32.49914
C         81.40957       32.25246       32.54032
C         82.09248       33.18804       33.51294
O         81.45013       33.78313       34.36126
O         83.44342       33.17436       33.54874
H         82.68052       30.77351       34.13753
H         79.85990       31.51420       33.86771
H         80.68629       32.79429       31.89391
H         82.19972       31.81814       31.88639
N         79.41614       30.16098       31.37659
C         79.09652       29.09932       30.42392
C         80.28679       28.72131       29.52986
O         80.59921       27.54125       29.50019
C         77.83162       29.43281       29.61048
C         77.42862       28.32334       28.65198
C         77.31557       26.98173       29.07836
C         77.14527       28.63010       27.30964
C         76.94811       25.97825       28.17698
C         76.75661       27.62473       26.41771
C         76.66422       26.29973       26.84918
H         78.92975       31.06971       31.30903
H         78.82257       28.20181       31.02043
H         77.95972       30.39199       29.06529
H         77.00353       29.56765       30.33971
H         77.52130       26.69549       30.10002
H         77.20813       29.65070       26.95473
H         76.88016       24.94992       28.50989
H         76.52617       27.87327       25.39015
H         76.36995       25.52215       26.15584
N         81.01675       29.62123       28.78905
C         82.13843       29.23654       27.93026
C         83.22804       28.51105       28.70014
O         83.73365       27.51493       28.19867
C         82.59427       30.56427       27.30417
C         82.18538       31.59446       28.33190
C         80.82970       31.05915       28.78479
H         81.82298       28.56864       27.09829
H         83.65294       30.60028       26.96586
H         81.94636       30.75898       26.41983
H         82.89935       31.53853       29.17979
H         82.16984       32.64597       27.97437
H         80.62069       31.50678       29.76976
H         80.02923       31.30865       28.05447
N         83.59617       28.90413       29.94461
C         84.59704       28.20804       30.74793
C         84.17659       26.76755       30.98048
O         84.93361       25.87084       30.63802
C         84.80170       28.96446       32.07038
C         85.42033       30.34521       31.77585
C         85.51173       31.20827       32.98011
O         85.06074       30.77964       34.17164
O         85.95483       32.33892       32.86621
H         83.10753       29.71138       30.35656
H         85.57503       28.20275       30.21468
H         85.48722       28.40279       32.74303
H         83.82007       29.07488       32.58415
H         84.80806       30.90924       31.04435
H         86.43848       30.20890       31.35160
N         82.95864       26.47615       31.51174
C         82.45654       25.12966       31.69303
H         81.53605       25.00198       31.08408
H         83.19021       24.35764       31.38195
H         82.20148       24.96842       32.75982
H         82.33625       27.24615       31.76913
Ca        84.93298       33.38596       35.29635
O         82.63028       35.99252       35.72992
H         81.80011       36.48364       35.50939
H         82.32545       35.23143       36.28562

Ca 1.0



