%chk=holoCaM.loop2.water1.frame51.chk
%nprocshared=20
%mem=10GB
%nosave
#b3lyp/svp scf=(tight,noincore,xqc) Test 
#IOP(5/87=12) Density=Current Pop=(MK,readradii) iop(6/33=2) iop(6/42=6)

holoCaM.loop2.water1.frame51 

   -2  1 
C         77.27790      106.92666       23.38777
C         76.17868      107.90917       23.10132
O         75.20069      107.54182       22.46747
H         78.09994      107.39593       23.97067
H         76.87333      106.07910       23.97895
H         77.69963      106.54624       22.43492
N         76.27358      109.18742       23.55495
C         75.24447      110.20053       23.34893
C         75.06013      110.46581       21.85532
O         76.02199      110.83678       21.19738
C         75.65392      111.45881       24.14149
C         74.64608      112.55619       24.11095
O         73.51669      112.37692       24.53074
O         75.01666      113.77293       23.68861
H         77.11589      109.44328       24.09496
H         74.29367      109.82803       23.78779
H         76.62585      111.84359       23.76224
H         75.78854      111.17241       25.20818
N         73.84944      110.24971       21.25429
C         73.61606      110.34417       19.81141
C         72.62028      111.43333       19.42056
O         72.44834      111.65206       18.22910
C         73.12725      108.98589       19.29995
H         73.06272      109.96132       21.84573
H         74.56792      110.58847       19.29256
H         72.15999      108.71824       19.77876
H         72.98466      109.00780       18.19847
H         73.87256      108.19916       19.54216
N         71.96814      112.18471       20.35094
C         71.14152      113.35091       20.02898
C         71.79459      114.62436       20.54681
O         71.23400      115.69293       20.34653
C         69.69370      113.17717       20.55583
C         69.56067      112.92558       22.03771
O         68.47060      112.62899       22.49958
O         70.63718      112.94144       22.84347
H         72.12048      111.96420       21.34089
H         71.06058      113.47976       18.92703
H         69.26060      112.29721       20.03302
H         69.08051      114.06464       20.28223
N         73.00063      114.59776       21.18716
C         73.67712      115.78247       21.66860
C         72.87773      116.48543       22.73562
O         72.67727      117.68468       22.61157
H         73.49697      113.70874       21.33710
H         73.90497      116.46366       20.82054
H         74.65199      115.48664       22.10050
N         72.38396      115.80255       23.81240
C         71.65700      116.45063       24.90275
C         72.31813      116.21662       26.26529
O         71.77476      116.67441       27.26077
C         70.16254      116.05479       24.88798
C         69.81416      114.63579       25.25272
N         68.51232      114.27050       25.30672
O         70.68215      113.81907       25.51165
H         72.51784      114.78144       23.85297
H         71.65146      117.55089       24.74435
H         69.75012      116.27040       23.87704
H         69.63475      116.71090       25.61296
H         67.76728      114.95180       25.09890
H         68.24207      113.31160       25.56303
N         73.52015      115.57609       26.38392
C         74.24855      115.44836       27.63883
C         73.78021      114.33688       28.55974
O         74.41547      114.16575       29.59138
H         74.01647      115.27094       25.53773
H         74.25709      116.42650       28.16804
H         75.30384      115.20183       27.39280
N         72.71746      113.53102       28.27567
C         72.29604      112.41816       29.13056
C         72.28812      111.10898       28.33957
O         72.60616      111.12345       27.15662
C         70.91839      112.73919       29.76042
C         71.00513      113.97856       30.66231
O         69.96411      112.95344       28.75497
H         72.17282      113.70747       27.42352
H         73.01087      112.27062       29.97040
H         70.61057      111.87942       30.39746
H         69.07288      112.89878       29.18999
H         71.75919      113.81966       31.46304
H         71.28671      114.87813       30.07516
H         70.02243      114.16788       31.14318
N         71.94415      109.92889       28.93914
C         71.93473      108.63733       28.25311
C         70.51239      108.09815       28.18070
O         69.93959      107.76622       29.21041
C         72.89621      107.63458       28.98505
C         74.37048      108.06953       28.78524
C         72.69457      106.18322       28.51144
C         75.38831      107.17872       29.50918
H         71.67362      109.93731       29.93438
H         72.29058      108.74684       27.20482
H         72.65451      107.64359       30.07182
H         74.49628      109.10350       29.16897
H         74.61559      108.06667       27.69979
H         72.89827      106.09689       27.42731
H         73.33258      105.46989       29.06683
H         71.66907      105.84601       28.74291
H         76.41022      107.58065       29.35158
H         75.17518      107.15142       30.59834
H         75.39086      106.14403       29.10862
N         69.89976      107.94028       26.96768
C         68.64224      107.21904       26.79037
C         68.89601      105.73135       26.97218
O         70.04309      105.33840       27.09590
C         68.07367      107.44497       25.37097
C         67.72310      108.88228       25.12313
O         66.78350      109.48432       25.87712
O         68.26372      109.50253       24.22146
H         70.37450      108.29081       26.12820
H         67.90211      107.58114       27.53785
H         67.14046      106.85955       25.23674
H         68.81603      107.10045       24.61519
N         67.88081      104.82916       26.99316
C         68.12267      103.40070       27.17287
C         68.94251      102.80596       26.01942
O         69.95205      102.18733       26.32091
C         66.80146      102.65538       27.46094
C         66.98988      101.18040       27.74219
C         67.86053      100.73611       28.75730
C         66.26922      100.22938       26.99950
C         68.01145       99.36973       29.01140
C         66.41450       98.86486       27.26630
C         67.28695       98.43508       28.26883
H         66.91063      105.17382       26.92108
H         68.72214      103.28258       28.10302
H         66.07523      102.79681       26.64041
H         66.35065      103.11509       28.36759
H         68.42670      101.43844       29.35419
H         65.58434      100.54294       26.22169
H         68.68734       99.03563       29.78831
H         65.84763       98.14037       26.69656
H         67.39905       97.37813       28.47259
N         68.62686      102.96272       24.69075
C         69.44254      102.45204       23.58646
C         70.90983      102.82458       23.70284
O         71.77332      101.97315       23.54351
C         68.85116      103.15275       22.35039
C         67.39930      103.28257       22.72949
C         67.49960      103.71906       24.18588
H         69.30914      101.34996       23.51496
H         69.23347      104.19712       22.27209
H         69.05794      102.64068       21.38653
H         66.79926      103.96147       22.08669
H         66.95318      102.26301       22.69815
H         67.73747      104.79932       24.27062
H         66.53774      103.49015       24.67374
N         71.24116      104.10989       23.99355
C         72.59954      104.63468       24.09823
C         73.37722      103.85579       25.14423
O         74.45752      103.37037       24.83763
C         72.53009      106.16352       24.37902
C         71.87301      106.86557       23.16386
C         71.53905      108.31761       23.30943
O         71.82614      109.04270       24.40450
O         70.94777      108.86142       22.38998
H         70.45600      104.75190       24.17674
H         73.12969      104.51178       23.12600
H         73.54792      106.58375       24.53551
H         71.93017      106.34162       25.29624
H         70.90336      106.39204       22.92488
H         72.53106      106.74188       22.27676
N         72.84947      103.61827       26.37358
C         73.51217      102.79292       27.35893
H         74.48055      103.24783       27.65168
H         72.86995      102.69546       28.26061
H         73.68497      101.77580       26.94441
H         71.92394      103.99260       26.60299
Ca        71.06020      111.15737       24.16280
O         69.07978      111.17387       26.66832
H         69.68879      110.74330       27.31566
H         68.24627      111.32749       27.18012

Ca 1.0



