%chk=holoCaM-CaMKII.loop3.water1.frame431.chk
%nprocshared=20
%mem=10GB
%nosave
#b3lyp/svp scf=(tight,noincore,xqc) Test 
#IOP(5/87=12) Density=Current Pop=(MK,readradii) iop(6/33=2) iop(6/42=6)

holoCaM-CaMKII.loop3.water1.frame431 

   0  1 
C         78.81331       72.78860       29.92772
C         77.53004       72.86581       30.69622
O         77.47428       73.60136       31.67177
H         79.62450       72.42532       30.59110
H         78.72393       72.10256       29.05942
H         79.07185       73.80060       29.55054
N         76.44466       72.14336       30.30023
C         75.15212       72.22338       30.95892
C         74.77254       70.83515       31.47164
O         74.58760       69.93414       30.66453
C         74.15181       72.79907       29.93202
C         72.81061       73.11415       30.49766
O         72.57313       72.93586       31.79876
O         71.92433       73.53292       29.77368
H         76.52489       71.53326       29.47161
H         75.20683       72.92709       31.81901
H         74.03319       72.07906       29.09323
H         74.55750       73.75038       29.52511
N         74.72774       70.57293       32.81390
C         74.53574       69.21967       33.35157
C         73.12925       68.65955       33.14710
O         72.96167       67.45619       33.28752
C         75.00450       69.13024       34.82602
C         74.18790       69.97774       35.82377
C         74.88267       70.10566       37.19494
C         75.03184       68.77950       37.95689
N         75.72157       68.99132       39.23137
H         74.96748       71.34139       33.45621
H         75.23166       68.56003       32.78491
H         76.06000       69.48125       34.84449
H         74.99545       68.06824       35.15305
H         73.16235       69.56483       35.93525
H         74.09372       71.00991       35.43646
H         74.28854       70.80482       37.82317
H         75.88825       70.55771       37.04384
H         75.61835       68.05210       37.35682
H         74.02383       68.35031       38.14852
H         76.68689       69.35721       39.05969
H         75.19133       69.66935       39.82556
H         75.79501       68.08078       39.74014
N         72.07562       69.46216       32.82439
C         70.72792       68.97499       32.51316
C         70.27253       69.44164       31.12047
O         69.19470       69.03812       30.70549
C         69.71219       69.33110       33.63924
C         69.85148       70.73019       34.15160
O         69.07813       71.71639       33.68169
O         70.84954       71.03067       34.78892
H         72.23253       70.47871       32.79646
H         70.71916       67.86386       32.45345
H         69.88611       68.66711       34.51356
H         68.67592       69.13313       33.28894
N         71.06158       70.21034       30.30678
C         70.75817       70.48985       28.90929
C         69.54515       71.35633       28.62228
O         69.24779       71.50182       27.44420
H         71.98230       70.52184       30.63185
H         70.61931       69.51469       28.39207
H         71.63573       70.98603       28.43992
N         68.77510       71.94230       29.58815
C         67.52206       72.62398       29.24482
C         67.68966       73.89396       28.41207
O         66.68078       74.39376       27.93364
C         66.67463       72.93548       30.49823
C         67.17062       74.13205       31.27416
N         66.36732       75.19718       31.49035
O         68.30730       74.15037       31.70401
H         69.02478       71.81245       30.57792
H         66.93765       71.88813       28.64765
H         66.64437       72.03834       31.15310
H         65.63268       73.14210       30.17180
H         65.39902       75.21814       31.14031
H         66.72004       76.00391       32.02092
N         68.90064       74.49821       28.23130
C         69.06921       75.71512       27.44981
C         69.62861       76.88227       28.24190
O         69.84585       77.91531       27.62277
H         69.74292       74.08739       28.65352
H         68.11295       76.04709       26.99438
H         69.77389       75.49203       26.61896
N         69.93090       76.81231       29.57582
C         70.63655       77.90577       30.25061
C         71.47703       77.41833       31.41192
O         71.31779       76.28574       31.84909
C         69.68567       79.07353       30.63904
C         68.71813       78.79850       31.78277
C         69.18581       78.61122       33.09984
C         67.32917       78.78582       31.55768
C         68.29450       78.40238       34.15499
C         66.43677       78.57815       32.61874
C         66.91560       78.38234       33.91824
O         66.04505       78.18286       34.92923
H         69.78188       75.92325       30.07152
H         71.38662       78.29148       29.52350
H         69.12241       79.36605       29.72722
H         70.28973       79.95830       30.93446
H         70.23838       78.64418       33.33011
H         66.93206       78.93914       30.56275
H         68.67870       78.26431       35.15860
H         65.37042       78.56781       32.43097
H         66.33801       78.04667       35.84221
N         72.43710       78.23270       31.93883
C         73.27835       77.83324       33.06038
C         73.20252       78.83997       34.19485
O         72.72987       79.95377       34.01240
C         74.75114       77.59239       32.61158
C         75.38261       78.86519       31.98606
C         74.81035       76.39114       31.64804
C         76.87309       78.72007       31.67358
H         72.58752       79.15998       31.51275
H         72.90104       76.87790       33.48064
H         75.34002       77.31792       33.51412
H         75.28427       79.70873       32.70204
H         74.85218       79.13982       31.04922
H         74.25613       76.60431       30.70960
H         75.85558       76.12607       31.39394
H         74.36353       75.49556       32.12842
H         77.05567       77.94072       30.90694
H         77.25778       79.68074       31.27028
H         77.43717       78.47195       32.59748
N         73.64076       78.46511       35.42533
C         73.66698       79.31666       36.60564
C         75.06521       79.29373       37.21121
O         75.94818       78.66349       36.65028
C         72.61731       78.79404       37.60233
O         72.90190       77.47128       37.97038
H         73.95003       77.49136       35.54644
H         73.39760       80.36587       36.35381
H         71.62091       78.84702       37.10448
H         72.58519       79.43218       38.51070
H         72.06431       77.10040       38.35214
N         75.33656       79.92979       38.38357
C         76.62900       79.82405       39.05858
C         76.94711       78.37333       39.38255
O         78.03696       77.91622       39.06813
C         76.61871       80.63815       40.35555
H         74.58525       80.47330       38.83460
H         77.43066       80.24498       38.41063
H         76.42223       81.70708       40.12804
H         75.83588       80.26784       41.05140
H         77.60820       80.56417       40.85680
N         76.00946       77.58380       39.97918
C         76.21971       76.18249       40.33165
C         76.70829       75.36446       39.15261
O         77.72210       74.69121       39.27501
C         74.90670       75.57641       40.85341
H         75.08540       78.00122       40.17287
H         76.97477       76.11860       41.14579
H         74.11349       75.62023       40.07452
H         75.05688       74.51409       41.14215
H         74.55168       76.13588       41.74430
N         76.02180       75.36925       37.98058
C         76.38514       74.54155       36.83416
C         77.77349       74.89790       36.33118
O         78.64076       74.03553       36.33739
C         75.33912       74.69820       35.71416
C         73.94194       74.24121       36.18085
C         72.91210       74.51793       35.13806
O         73.02623       74.03020       34.03241
O         71.85742       75.30902       35.41362
H         75.19729       75.98343       37.92005
H         76.38076       73.47216       37.14636
H         75.64031       74.09167       34.83043
H         75.30477       75.75846       35.40046
H         73.62194       74.76865       37.09997
H         73.96512       73.15524       36.40417
N         78.05552       76.15686       35.89479
C         79.36203       76.57830       35.43203
H         80.10971       75.75871       35.46534
H         79.28256       76.94326       34.38671
H         79.72515       77.40907       36.07369
H         77.31159       76.86254       35.89480
Ca        70.49364       72.98683       32.54987
O         68.73109       75.05824       34.46172
H         67.81556       74.73745       34.66015
H         68.94772       75.67021       35.20864

Ca 1.0



