%chk=holoCaM.loop3.water3.frame226.chk
%nprocshared=20
%mem=10GB
%nosave
#b3lyp/svp scf=(tight,noincore,xqc) Test 
#IOP(5/87=12) Density=Current Pop=(MK,readradii) iop(6/33=2) iop(6/42=6)

holoCaM.loop3.water3.frame226 

   0  1 
C         33.75107       70.48414       19.32298
C         32.79229       70.35278       20.46143
O         31.67834       69.89616       20.24496
H         34.65881       69.88122       19.52964
H         33.28486       70.12468       18.38020
H         34.03002       71.55119       19.20078
N         33.15917       70.74467       21.71495
C         32.26093       70.65957       22.85157
C         31.99363       72.05209       23.38981
O         32.72909       72.54720       24.23331
C         32.82106       69.70998       23.91342
C         31.79993       69.44474       24.97539
O         30.57740       70.01960       24.92456
O         32.06450       68.66501       25.87205
H         34.10625       71.12550       21.86564
H         31.29053       70.21979       22.52998
H         33.75509       70.11680       24.35978
H         33.05967       68.73473       23.43456
N         30.96815       72.76563       22.85942
C         30.67888       74.15559       23.18460
C         30.26854       74.40563       24.64184
O         30.31825       75.56345       25.03261
C         29.60656       74.65911       22.18337
C         29.13637       76.10982       22.32972
C         30.26649       77.13645       22.20168
C         29.69943       78.55406       22.33616
N         30.76360       79.55315       22.28075
H         30.42495       72.31418       22.10821
H         31.62083       74.72075       23.00872
H         28.70576       74.01279       22.27796
H         30.00974       74.52550       21.15379
H         28.62113       76.23258       23.30521
H         28.38588       76.29838       21.53051
H         30.77113       77.02419       21.21711
H         31.01597       76.97639       23.00377
H         29.16559       78.64780       23.30860
H         28.97051       78.74061       21.51598
H         31.43316       79.40436       23.07066
H         31.27059       79.48991       21.36854
H         30.34008       80.50458       22.37226
N         29.84836       73.42577       25.50233
C         29.48241       73.71787       26.89828
C         30.31453       72.94465       27.92067
O         30.13661       73.18798       29.10680
C         27.96835       73.54220       27.14164
C         27.47057       72.13598       26.99722
O         27.50096       71.57826       25.91381
O         26.93787       71.50273       28.05987
H         29.75959       72.46177       25.15575
H         29.68030       74.78896       27.12014
H         27.40127       74.19781       26.44572
H         27.74361       73.88788       28.17543
N         31.27315       72.04752       27.55516
C         32.17054       71.41315       28.50617
C         31.48843       70.48213       29.48517
O         31.61121       70.70220       30.68181
H         31.44184       71.85461       26.56069
H         32.72404       72.20537       29.05764
H         32.92074       70.81274       27.94720
N         30.82418       69.37410       29.04604
C         30.31515       68.32565       29.93669
C         31.05061       66.99928       29.69446
O         30.79504       66.05006       30.42120
C         28.76276       68.20340       29.82726
C         28.18583       67.42562       28.61874
N         27.89397       66.04131       28.97427
O         29.11556       67.41303       27.59776
H         30.74021       69.25040       28.03313
H         30.52214       68.62433       30.98679
H         28.35275       69.23616       29.81407
H         28.36166       67.73115       30.75034
H         27.09872       66.03517       29.65169
H         27.56419       65.54480       28.11446
N         31.97725       66.86697       28.68942
C         32.74929       65.66769       28.41378
C         32.45238       65.05684       27.05094
O         33.13299       64.10074       26.70729
H         32.19178       67.65838       28.07665
H         32.56848       64.88286       29.17887
H         33.82527       65.94242       28.46050
N         31.40631       65.46978       26.26731
C         30.98099       64.76110       25.06073
C         30.76202       65.68680       23.87047
O         30.77839       66.89881       24.01184
C         29.65520       64.00689       25.33768
C         29.81163       62.90429       26.36012
C         30.03401       63.18767       27.71998
C         29.73364       61.56287       25.94884
C         30.20282       62.15060       28.64109
C         29.90141       60.52797       26.87067
C         30.14283       60.81858       28.22015
O         30.31691       59.82830       29.11771
H         30.81479       66.23700       26.59098
H         31.75175       64.01795       24.76020
H         29.31623       63.54732       24.38520
H         28.85416       64.70779       25.65893
H         30.07646       64.20788       28.07493
H         29.55654       61.31477       24.90959
H         30.38296       62.38403       29.68298
H         29.84841       59.50130       26.53199
H         30.29069       58.89493       28.86285
N         30.53227       65.13521       22.64310
C         30.22806       65.87763       21.42351
C         28.92214       65.33904       20.86110
O         28.81873       64.13330       20.67471
C         31.36425       65.68735       20.37455
C         32.71288       66.20170       20.93907
C         31.00720       66.41400       19.05537
C         33.90408       65.91703       20.02120
H         30.58373       64.10785       22.56015
H         30.13957       66.96870       21.62462
H         31.46461       64.59977       20.15961
H         32.92574       65.68739       21.89987
H         32.65246       67.29407       21.13802
H         31.77284       66.24562       18.27402
H         30.05850       66.02849       18.63008
H         30.89628       67.50585       19.22525
H         33.81964       66.45490       19.05621
H         34.83798       66.26085       20.51228
H         33.98517       64.82556       19.82966
N         27.91449       66.17853       20.49127
C         26.68794       65.70819       19.85406
C         26.64920       66.14917       18.40353
O         27.52998       66.87399       17.96975
C         25.46085       66.21942       20.62914
O         25.39459       67.62168       20.60658
H         28.05050       67.19372       20.59582
H         26.65317       64.59755       19.84961
H         25.48447       65.84255       21.67777
H         24.52637       65.82352       20.17926
H         25.86693       67.94912       21.41554
N         25.65532       65.71865       17.57965
C         25.53420       66.13975       16.18706
C         25.29515       67.63455       16.10764
O         25.94657       68.30308       15.31792
C         24.38079       65.39794       15.50588
H         24.95211       65.06781       17.96280
H         26.45820       65.87184       15.62542
H         24.31118       65.70405       14.43935
H         24.57154       64.30340       15.53709
H         23.41401       65.61060       16.00829
N         24.39661       68.22606       16.94634
C         24.10851       69.65667       16.96388
C         25.37353       70.48192       17.08947
O         25.58922       71.35598       16.26122
C         23.16409       69.98415       18.12845
H         23.91273       67.62488       17.63187
H         23.59456       69.93536       16.01717
H         23.63239       69.71996       19.10191
H         22.91982       71.06769       18.13352
H         22.21829       69.41103       18.02622
N         26.26916       70.24003       18.08679
C         27.51161       70.99384       18.24299
C         28.34049       70.88864       16.97240
O         28.63727       71.91516       16.37705
C         28.30261       70.50550       19.48195
C         27.51155       70.75664       20.78341
C         28.23755       70.28113       22.00825
O         28.48383       71.13609       23.01644
O         28.55234       69.10931       22.12747
H         26.06181       69.46984       18.73847
H         27.26786       72.06777       18.40937
H         29.26285       71.06346       19.54323
H         28.53240       69.42203       19.37726
H         26.53910       70.22921       20.75458
H         27.30833       71.84528       20.88326
N         28.69571       69.67423       16.47032
C         29.39996       69.49317       15.21677
H         30.34383       68.93938       15.39724
H         28.76368       68.89828       14.52634
H         29.63904       70.45648       14.71982
H         28.42468       68.82796       16.98055
Ca        29.02936       69.23020       26.30621
O         25.39739       68.70114       27.25879
H         25.43452       68.33526       28.17770
H         26.28782       69.10920       27.11737
O         26.83433       66.59961       24.96593
H         26.84440       65.71775       24.51571
H         26.11413       66.52331       25.64106
O         25.74382       69.76383       24.17638
H         24.90991       69.55715       24.66793
H         25.44026       70.24564       23.36654

Ca 1.0



