%chk=holoCaM.loop3.water2.frame461.chk
%nprocshared=20
%mem=10GB
%nosave
#b3lyp/svp scf=(tight,noincore,xqc) Test 
#IOP(5/87=12) Density=Current Pop=(MK,readradii) iop(6/33=2) iop(6/42=6)

holoCaM.loop3.water2.frame461 

   0  1 
C         26.10560       63.30884       60.27302
C         26.05946       62.48536       61.52277
O         26.06793       61.26497       61.43892
H         25.20622       63.95672       60.22156
H         27.01584       63.94519       60.28425
H         26.13542       62.65782       59.37367
N         26.02872       63.09985       62.73650
C         26.03261       62.35805       63.98818
C         24.76806       61.51832       64.11757
O         23.66970       62.05551       64.10051
C         26.20724       63.31938       65.16956
C         26.44591       62.61494       66.46930
O         26.44987       61.39750       66.55673
O         26.70895       63.35223       67.55096
H         26.04799       64.13191       62.76216
H         26.93187       61.70231       63.97777
H         25.32774       63.99276       65.26009
H         27.10761       63.94454       64.98057
N         24.87928       60.16598       64.18904
C         23.75774       59.23342       64.12270
C         22.84064       59.29737       65.34305
O         21.64581       59.47562       65.15382
C         24.33368       57.82993       63.85586
C         23.30417       56.76037       63.48399
C         24.04774       55.54381       62.89746
C         23.12332       54.40305       62.45846
N         22.52073       53.71830       63.60091
H         25.83488       59.77418       64.18511
H         23.16419       59.48289       63.21367
H         24.93565       57.47548       64.71258
H         25.00975       57.94869       62.97744
H         22.62478       57.15459       62.69670
H         22.70556       56.50150       64.38186
H         24.80072       55.15429       63.61669
H         24.59119       55.89025       61.98913
H         23.73509       53.66583       61.89184
H         22.33565       54.78955       61.77401
H         21.93634       52.92626       63.24925
H         23.27338       53.32991       64.21559
H         21.91371       54.36738       64.14830
N         23.32205       59.19368       66.61799
C         22.46705       59.25864       67.81593
C         22.52917       60.61438       68.51441
O         21.80607       60.79063       69.48613
C         22.77372       58.10426       68.80507
C         24.23763       57.99042       69.10150
O         24.97063       59.07640       69.40149
O         24.81341       56.94345       68.84915
H         24.34329       59.13097       66.73868
H         21.39763       59.15618       67.52985
H         22.44358       57.14213       68.35393
H         22.20060       58.24174       69.74663
N         23.28898       61.64375       68.04685
C         23.21077       62.98857       68.59359
C         23.67976       63.09890       70.02592
O         22.90080       63.53109       70.86443
H         23.88142       61.50757       67.21780
H         22.15921       63.34552       68.51163
H         23.83933       63.66710       67.97880
N         24.96299       62.78558       70.36476
C         25.52257       63.00922       71.70072
C         26.68681       64.00564       71.68507
O         27.19683       64.32430       72.74955
C         25.97651       61.67892       72.33364
C         27.18132       61.07338       71.64530
N         28.35307       60.93647       72.30865
O         27.10539       60.71010       70.48280
H         25.56963       62.40400       69.62681
H         24.73949       63.43825       72.36391
H         25.13445       60.95367       72.33241
H         26.23355       61.88310       73.39608
H         28.44753       61.24128       73.28814
H         29.17552       60.53335       71.83745
N         27.16967       64.51851       70.51827
C         28.26968       65.45552       70.41204
C         29.43962       64.90124       69.62018
O         30.29605       65.70345       69.26992
H         26.73288       64.26020       69.63657
H         28.64470       65.79012       71.40266
H         27.87916       66.35050       69.88111
N         29.60977       63.56296       69.36364
C         30.78769       63.04630       68.66086
C         30.42524       62.12469       67.50629
O         29.29447       61.66384       67.41646
C         31.74112       62.30547       69.62902
C         32.31251       63.22871       70.68288
C         31.51137       63.73138       71.72414
C         33.66645       63.60346       70.62440
C         32.04825       64.60878       72.67066
C         34.20021       64.48281       71.56998
C         33.39057       64.99301       72.59400
O         33.89019       65.85103       73.50603
H         28.92989       62.88328       69.73857
H         31.35938       63.89113       68.21664
H         32.58134       61.90057       69.02311
H         31.24218       61.43822       70.11300
H         30.47067       63.44752       71.80817
H         34.30830       63.22967       69.83623
H         31.41775       64.99406       73.46210
H         35.24158       64.77104       71.50110
H         34.81014       66.15090       73.47972
N         31.36883       61.83894       66.56079
C         31.16766       60.95788       65.41263
C         32.28535       59.91998       65.39180
O         33.44236       60.28850       65.55649
C         31.14370       61.76924       64.08035
C         30.07740       62.89428       64.16227
C         30.84282       60.82271       62.89521
C         29.93928       63.73197       62.88859
H         32.28620       62.30815       66.63852
H         30.17946       60.44953       65.48037
H         32.13933       62.23804       63.91635
H         30.35339       63.58996       64.98297
H         29.08805       62.45499       64.40125
H         29.83481       60.36898       63.00871
H         30.88501       61.35545       61.92518
H         31.59474       60.01334       62.82635
H         29.55409       63.12388       62.04447
H         29.20479       64.54611       63.06286
H         30.91573       64.18114       62.61093
N         32.01911       58.61406       65.11805
C         33.02572       57.56243       65.05891
C         33.23090       57.09965       63.62711
O         32.52761       57.55749       62.73561
C         32.58883       56.39268       65.96108
O         31.37296       55.86115       65.50474
H         31.05870       58.35709       64.88260
H         34.00430       57.94727       65.41950
H         32.46306       56.77133       67.00024
H         33.36333       55.59553       65.95520
H         31.10293       55.16647       66.15958
N         34.21452       56.20566       63.32719
C         34.46689       55.73150       61.96983
C         33.28046       54.95887       61.42657
O         33.01402       55.04880       60.23680
C         35.72408       54.86264       61.91800
H         34.81930       55.86637       64.09233
H         34.66061       56.61106       61.31423
H         36.59652       55.44918       62.27918
H         35.60793       53.95816       62.55090
H         35.92805       54.55244       60.87025
N         32.50578       54.19742       62.25164
C         31.29041       53.52644       61.80508
C         30.27351       54.55153       61.33522
O         29.79951       54.45766       60.21149
C         30.68998       52.69873       62.95011
H         32.77388       54.11804       63.24474
H         31.53513       52.81982       60.98069
H         30.42550       53.34029       63.81790
H         29.77432       52.17390       62.60249
H         31.42248       51.93532       63.28832
N         29.90849       55.57556       62.15982
C         28.92453       56.60084       61.80810
C         29.37669       57.47130       60.63553
O         28.57188       58.25952       60.15793
C         28.65712       57.52173       63.02536
C         28.09638       56.76282       64.24362
C         28.03781       57.62291       65.47867
O         26.87622       57.82178       66.10678
O         29.05199       58.07677       65.97308
H         30.35485       55.61283       63.08638
H         27.97719       56.08961       61.52529
H         27.93821       58.32750       62.75596
H         29.62007       57.99615       63.28782
H         28.72837       55.89229       64.50363
H         27.08489       56.37993       63.99018
N         30.64199       57.41339       60.13137
C         31.07843       58.23137       59.02208
H         32.14780       58.02300       58.79961
H         30.47772       57.99647       58.11841
H         30.97321       59.30668       59.27714
H         31.33639       56.78816       60.54888
Ca        26.75488       58.92181       68.06981
O         29.92465       59.02089       69.24854
H         30.70615       58.78350       68.68890
H         30.28493       59.06663       70.16951
O         28.08386       56.48364       69.33863
H         27.62012       56.28700       68.48629
H         28.71449       55.72995       69.45561

Ca 1.0



