%chk=holoCaM.loop2.water2.frame461.chk
%nprocshared=20
%mem=10GB
%nosave
#b3lyp/svp scf=(tight,noincore,xqc) Test 
#IOP(5/87=12) Density=Current Pop=(MK,readradii) iop(6/33=2) iop(6/42=6)

holoCaM.loop2.water2.frame461 

   -2  1 
C         13.94519       95.00770       44.42989
C         14.33895       96.08570       43.46832
O         15.45481       96.06342       42.96762
H         13.06714       94.45998       44.02461
H         14.77648       94.28467       44.57155
H         13.67848       95.45607       45.40820
N         13.43968       97.04843       43.12505
C         13.72408       98.04610       42.10504
C         14.79101       99.02354       42.57496
O         14.54147       99.80292       43.48340
C         12.40591       98.70384       41.64619
C         12.54824       99.47397       40.37387
O         11.56097       99.72938       39.71536
O         13.75071       99.90284       39.97104
H         12.49441       97.00224       43.53779
H         14.10861       97.49881       41.22480
H         11.92031       99.31560       42.43676
H         11.72065       97.86161       41.40087
N         16.04103       98.97216       42.02803
C         17.16250       99.77927       42.48950
C         17.05215      101.25283       42.12885
O         17.73848      102.04034       42.76538
C         18.47443       99.23241       41.90590
H         16.23043       98.24805       41.32415
H         17.22397       99.67236       43.59559
H         19.34719       99.79609       42.29836
H         18.59850       98.16324       42.18397
H         18.46716       99.30772       40.79601
N         16.31435      101.69152       41.06340
C         16.29473      103.08864       40.62411
C         14.87952      103.69647       40.64486
O         14.74930      104.86616       40.31183
C         17.00338      103.19261       39.24388
C         16.16603      102.64988       38.12798
O         15.13451      103.22409       37.83614
O         16.45351      101.51307       37.47631
H         15.80510      101.00322       40.49812
H         16.90770      103.70364       41.31798
H         17.97069      102.64731       39.30718
H         17.22731      104.25431       39.00436
N         13.78776      102.99084       41.07720
C         12.46326      103.57639       41.26472
C         11.63009      103.83700       40.01723
O         10.53067      104.34617       40.18799
H         13.91289      102.03027       41.42210
H         12.56911      104.51738       41.84777
H         11.85937      102.87676       41.88289
N         12.03065      103.51855       38.75123
C         11.18767      103.78650       37.57857
C          9.91930      102.92407       37.52538
O          9.07345      103.19194       36.68340
C         11.97857      103.65291       36.25402
C         12.50186      102.27080       35.93970
N         13.14081      102.04769       34.76922
O         12.35233      101.35003       36.72619
H         12.95697      103.10603       38.62109
H         10.87523      104.85386       37.63871
H         12.83866      104.35658       36.27265
H         11.31050      103.96180       35.41984
H         13.27340      102.80953       34.08819
H         13.49343      101.10860       34.53703
N          9.72559      101.87372       38.37451
C          8.51800      101.06164       38.42012
C          8.74765       99.58141       38.14287
O          7.86489       98.80660       38.48460
H         10.45080      101.65460       39.06097
H          7.72938      101.42717       37.72727
H          8.11145      101.15994       39.44975
N          9.83356       99.11372       37.45240
C         10.01585       97.69827       37.09524
C         11.42996       97.20232       37.40134
O         12.26524       97.99299       37.81289
C          9.69040       97.49041       35.59445
C          8.22475       97.81719       35.27068
O         10.56335       98.22610       34.77208
H         10.50899       99.79587       37.08706
H          9.31486       97.06417       37.68232
H          9.82123       96.41663       35.34523
H         10.32139       99.18594       34.84382
H          7.54886       97.18902       35.89020
H          7.99807       98.88620       35.46686
H          8.02034       97.60413       34.20078
N         11.77117       95.88909       37.20598
C         13.10838       95.35303       37.47062
C         13.75338       94.81976       36.19315
O         13.25660       93.87615       35.59573
C         13.09571       94.28318       38.61412
C         12.15438       93.07712       38.34641
C         12.76100       94.97009       39.94599
C         12.21769       92.00039       39.43291
H         11.05232       95.23902       36.85695
H         13.77143       96.16812       37.83208
H         14.13189       93.89086       38.71190
H         12.44916       92.57775       37.40457
H         11.10163       93.41595       38.25323
H         11.73249       95.38701       39.93978
H         12.87739       94.28204       40.80678
H         13.48344       95.78573       40.10974
H         11.57941       91.14108       39.13882
H         13.25902       91.64305       39.56043
H         11.83919       92.37601       40.40427
N         14.89710       95.39800       35.72417
C         15.66525       94.90624       34.57605
C         16.35669       93.57950       34.96222
O         16.14588       93.12390       36.07651
C         16.69364       96.01104       34.19886
C         17.31020       95.94046       32.82367
O         18.24311       96.84885       32.48137
O         16.91884       95.14771       31.98318
H         15.24640       96.23246       36.21785
H         14.97145       94.77973       33.71627
H         17.47975       96.05072       34.98216
H         16.17590       96.99428       34.20466
N         17.19795       92.90170       34.12182
C         17.92326       91.69310       34.51938
C         18.89673       91.96321       35.67212
O         18.83641       91.20074       36.62505
C         18.62181       91.01918       33.31463
C         19.37880       89.77281       33.72557
C         18.71175       88.68165       34.31457
C         20.76907       89.69674       33.52902
C         19.42518       87.54320       34.70302
C         21.47709       88.55519       33.91671
C         20.80638       87.48004       34.50435
H         17.34014       93.23882       33.16741
H         17.17502       90.94780       34.87135
H         19.30784       91.72231       32.81373
H         17.85346       90.74052       32.56150
H         17.64227       88.70928       34.47770
H         21.30745       90.52182       33.07976
H         18.90709       86.70940       35.15936
H         22.54725       88.50529       33.76315
H         21.35702       86.59819       34.80568
N         19.80494       92.99624       35.71246
C         20.66693       93.27295       36.86479
C         19.94833       93.50869       38.19703
O         20.63048       93.67105       39.19888
C         21.38069       94.57561       36.47858
C         21.46436       94.45746       34.97889
C         20.07837       93.92123       34.63195
H         21.37346       92.41776       36.95625
H         20.70227       95.43994       36.67543
H         22.34084       94.75583       37.00764
H         21.74563       95.38834       34.44234
H         22.21806       93.66849       34.75114
H         19.30831       94.71552       34.63631
H         20.15905       93.45566       33.63734
N         18.58749       93.57397       38.27851
C         17.83265       93.83400       39.49898
C         16.97015       92.63973       39.89962
O         16.47438       92.64250       41.01795
C         16.91416       95.04397       39.24656
C         17.69186       96.32723       38.93160
C         16.75878       97.37361       38.39639
O         16.96785       97.88157       37.30630
O         15.66069       97.72071       39.08674
H         18.04074       93.48402       37.42293
H         18.52626       94.03299       40.34566
H         16.25017       95.23096       40.12012
H         16.27240       94.79095       38.37368
H         18.47059       96.14120       38.16076
H         18.19024       96.68410       39.85794
N         16.72729       91.59829       39.05112
C         15.94770       90.42956       39.39778
H         15.06761       90.36286       38.72493
H         16.57095       89.52311       39.24595
H         15.59999       90.44680       40.45076
H         17.08425       91.61954       38.09508
Ca        14.76493      100.13220       37.97378
O         13.82274       98.46398       35.13903
H         13.17724       97.71478       35.14313
H         14.01042       98.61804       34.17945
O         16.28484      100.31338       34.97810
H         16.53432       99.41416       34.64984
H         15.95104      100.79073       34.17814

Ca 1.0



