%chk=holoCaM-CaMKII.loop1.water2.frame169.chk
%nprocshared=20
%mem=10GB
%nosave
#b3lyp/svp scf=(tight,noincore,xqc) Test 
#IOP(5/87=12) Density=Current Pop=(MK,readradii) iop(6/33=2) iop(6/42=6)

holoCaM-CaMKII.loop1.water2.frame169 

   0  1 
C        103.21146       49.96392       11.67416
C        103.18411       51.45403       11.69611
O        103.08392       52.04227       12.76251
H        104.08444       49.60736       12.25384
H        102.26891       49.57855       12.11257
H        103.29174       49.58678       10.63162
N        103.28142       52.13844       10.53411
C        103.22194       53.57703       10.47097
C        101.82211       54.07063       10.85204
O        100.87031       53.69394       10.18374
C        103.56145       54.00069        9.03417
C        103.72175       55.45502        8.95428
O        103.84588       56.12297       10.10368
O        103.89293       55.97930        7.88377
H        103.42829       51.61165        9.65945
H        104.00129       53.98743       11.16056
H        102.77685       53.65138        8.33325
H        104.54370       53.57239        8.72909
N        101.63230       54.93509       11.89265
C        100.32320       55.41001       12.34450
C        100.02765       56.84625       11.91925
O         98.92093       57.29500       12.19177
C        100.20949       55.30973       13.88758
C        100.47190       53.95184       14.57715
C         99.47210       52.82168       14.28655
C         99.71517       52.08657       12.96244
N         98.72751       51.03398       12.75774
H        102.45925       55.26562       12.38872
H         99.51470       54.82896       11.86629
H         99.19878       55.65284       14.20023
H        100.94379       56.02598       14.31943
H        100.38170       54.16827       15.66603
H        101.50117       53.59458       14.40766
H         98.43779       53.21920       14.35044
H         99.59954       52.05598       15.08378
H        100.72122       51.62912       12.98698
H         99.66519       52.76292       12.10488
H         97.77319       51.45733       12.69905
H         98.93854       50.54399       11.85806
H         98.76910       50.34410       13.54171
N        100.92412       57.62533       11.24169
C        100.57909       58.95140       10.72931
C        101.04502       59.15289        9.28628
O        101.39730       60.26143        8.90884
C        100.95218       60.07799       11.72465
C        102.40609       60.19513       12.05429
O        102.79402       61.07994       12.79539
O        103.28529       59.31722       11.58394
H        101.85741       57.25583       11.03282
H         99.47217       59.01487       10.63937
H        100.41089       59.90362       12.67952
H        100.62333       61.05151       11.30665
N        100.97562       58.11550        8.40370
C        101.09216       58.21941        6.95449
C        102.27072       59.00304        6.40632
O        102.05050       59.76479        5.47536
H        100.72487       57.18249        8.76461
H        100.16796       58.70723        6.57361
H        101.09339       57.19227        6.52865
N        103.53515       58.87664        6.89783
C        104.67644       59.64815        6.38354
C        105.78358       58.77679        5.76673
O        106.71206       59.32457        5.18951
C        105.20626       60.55068        7.52133
C        105.77868       59.80361        8.69270
O        105.95323       58.60058        8.64005
O        106.11334       60.47026        9.81287
H        103.67380       58.26044        7.70471
H        104.33039       60.31908        5.56940
H        104.34956       61.15530        7.89027
H        105.99004       61.24087        7.14848
N        105.72993       57.41822        5.82819
C        106.69614       56.49519        5.26193
C        107.82953       56.14578        6.20565
O        108.85915       55.69568        5.72549
H        104.92406       56.99401        6.26070
H        107.04017       56.82759        4.26121
H        106.16633       55.53274        5.08117
N        107.67102       56.20198        7.56028
C        108.69872       55.78897        8.52032
C        108.07549       55.31679        9.82644
O        106.95989       55.70416       10.14866
C        109.75207       56.90651        8.78821
C        110.71801       57.13704        7.62875
O        109.14545       58.12288        9.14360
H        106.74519       56.46561        7.91699
H        109.19991       54.87878        8.12702
H        110.38617       56.58091        9.64240
H        108.58545       58.42324        8.38032
H        110.18972       57.53278        6.74005
H        111.48516       57.88148        7.93133
H        111.23083       56.18495        7.37679
N        108.76377       54.44699       10.62864
C        108.21812       53.91650       11.87104
C        109.00847       54.51682       13.00470
O        110.21021       54.29040       13.06579
C        108.27178       52.34363       11.96128
C        108.04513       51.66086       10.58755
C        107.20981       51.88484       13.00182
C        108.22346       50.13143       10.58827
H        109.71326       54.15594       10.35081
H        107.15199       54.22290       11.95323
H        109.28216       52.01923       12.29762
H        108.79463       52.03261        9.85314
H        107.03514       51.92898       10.22398
H        107.17900       50.78943       13.15313
H        107.40675       52.33331       13.99578
H        106.19005       52.20048       12.68093
H        107.73322       49.62624       11.43973
H        107.77232       49.71992        9.66131
H        109.30144       49.85477       10.59471
N        108.39511       55.26514       13.96053
C        109.08379       55.73298       15.14695
C        108.72681       54.78944       16.27591
O        107.88596       53.91917       16.10098
C        108.83746       57.24698       15.41774
C        107.38428       57.61875       15.72351
O        109.63992       57.66733       16.49125
H        107.38187       55.37839       13.92385
H        110.17991       55.61633       15.00355
H        109.14014       57.79595       14.49289
H        109.98619       58.57146       16.27024
H        107.00675       57.05729       16.60305
H        107.31854       58.70459       15.95494
H        106.73992       57.43100       14.84535
N        109.42210       54.82982       17.43332
C        109.28163       53.82544       18.48007
C        107.86029       53.81047       19.03551
O        107.29036       52.74557       19.22626
C        110.33900       54.09507       19.58184
C        110.47686       52.90819       20.53412
O        111.59426       54.30202       18.98069
H        110.13783       55.56179       17.53614
H        109.51557       52.83015       18.03735
H        110.03613       55.01531       20.13659
H        112.13221       54.84794       19.61254
H        109.52378       52.69338       21.05475
H        110.79714       52.00951       19.96075
H        111.26252       53.13114       21.28711
N        107.23299       54.98786       19.29617
C        105.89647       55.12301       19.87858
C        104.81064       54.51695       18.99550
O        103.82222       54.02014       19.51812
C        105.65624       56.62276       20.12952
C        104.49249       56.96535       21.07178
C        104.39010       58.49277       21.30515
C        105.64061       59.17295       21.92111
N        105.81124       58.86450       23.34133
H        107.75975       55.84899       19.08072
H        105.90462       54.60710       20.86358
H        105.55247       57.15735       19.15690
H        106.57756       56.97162       20.62873
H        104.63067       56.43906       22.03932
H        103.53987       56.61564       20.61740
H        103.51272       58.71212       21.95204
H        104.20278       58.96155       20.31616
H        105.52452       60.27266       21.82153
H        106.56613       58.92953       21.36270
H        105.86180       57.83512       23.50790
H        106.69821       59.30636       23.67814
H        105.01593       59.27641       23.88193
N        104.93397       54.53754       17.63898
C        103.98076       53.92327       16.71834
C        104.04191       52.42047       16.88533
O        103.03759       51.81067       17.22703
C        104.30423       54.35133       15.26553
C        104.11676       55.87278       15.13040
C        104.32269       56.38588       13.74146
O        105.41159       56.06305       13.02746
O        103.49885       57.14158       13.25989
H        105.76564       54.99448       17.24329
H        102.94769       54.27953       16.94212
H        103.63968       53.83113       14.55454
H        105.34825       54.07528       15.00027
H        104.82877       56.39111       15.79469
H        103.09172       56.15520       15.45385
N        105.22086       51.76854       16.68916
C        105.42400       50.35964       16.94056
H        106.27410       50.24906       17.64797
H        104.53374       49.87753       17.39494
H        105.68148       49.84659       15.99171
H        106.03747       52.30289       16.36925
Ca       104.79268       57.93849       10.85211
O        107.91604       58.70185       11.81326
H        108.23805       59.51884       11.35557
H        107.81221       58.03147       11.09543
O        105.67251       59.55358       13.31612
H        104.82633       59.96719       13.61049
H        106.35662       60.23841       13.51748

Ca 1.0



