%chk=holoCaM.loop1.water2.frame481.chk
%nprocshared=20
%mem=10GB
%nosave
#b3lyp/svp scf=(tight,noincore,xqc) Test 
#IOP(5/87=12) Density=Current Pop=(MK,readradii) iop(6/33=2) iop(6/42=6)

holoCaM.loop1.water2.frame481 

   0  1 
C         75.40041       83.65260       61.29642
C         73.97405       83.53330       60.84542
O         73.66338       83.87170       59.71394
H         76.04531       84.05698       60.48893
H         75.44998       84.33830       62.16996
H         75.78233       82.65593       61.60282
N         73.04426       83.05504       61.71187
C         71.62017       82.93663       61.41367
C         71.02598       84.31563       61.14152
O         71.20841       85.22288       61.94072
C         70.93391       82.26216       62.61046
C         69.45678       82.05562       62.45947
O         68.71114       82.57709       63.27166
O         68.94762       81.18239       61.56165
H         73.37788       82.76644       62.64593
H         71.47802       82.26889       60.53440
H         71.11972       82.88160       63.51570
H         71.39306       81.26315       62.77994
N         70.28486       84.52062       60.01943
C         69.69384       85.78330       59.60420
C         68.16744       85.67791       59.58455
O         67.52137       86.62976       59.16844
C         70.17165       86.12671       58.16306
C         71.69802       86.06123       57.97045
C         72.17501       86.58111       56.59725
C         71.57560       85.84802       55.38184
N         72.13156       86.37261       54.13263
H         70.09243       83.71911       59.42409
H         69.99871       86.60174       60.29150
H         69.81201       87.14787       57.90916
H         69.71413       85.40528       57.45008
H         72.03308       85.01051       58.09200
H         72.19205       86.67879       58.75033
H         73.28193       86.47300       56.56437
H         71.93124       87.66188       56.51662
H         70.47295       85.98056       55.36292
H         71.79177       84.76311       55.44374
H         71.91408       87.39170       54.04103
H         73.16786       86.23119       54.10980
H         71.70619       85.86401       53.32374
N         67.52853       84.52807       59.96200
C         66.10883       84.26865       59.75577
C         65.39298       83.92246       61.05630
O         64.20361       83.63906       60.99951
C         65.99732       83.04826       58.82193
C         66.81760       83.19396       57.56761
O         66.47392       83.96797       56.68895
O         67.97886       82.51093       57.45097
H         68.07058       83.74360       60.34445
H         65.60867       85.14224       59.28336
H         64.94316       82.80483       58.56639
H         66.39934       82.19110       59.38951
N         66.03572       83.89712       62.26138
C         65.36411       83.50899       63.48996
C         64.98171       82.03755       63.54214
O         64.15253       81.69887       64.37397
H         67.02008       84.18662       62.33111
H         64.46259       84.14626       63.61577
H         66.02759       83.70065       64.36137
N         65.60193       81.09385       62.76933
C         65.31504       79.65907       62.86143
C         66.46575       78.87030       63.50173
O         66.34092       77.65983       63.62836
C         64.89364       79.09905       61.48374
C         65.89522       79.32103       60.38788
O         65.56460       79.89830       59.36593
O         67.14709       78.85949       60.50580
H         66.34779       81.39083       62.12373
H         64.44987       79.47774       63.53573
H         63.93595       79.57764       61.18300
H         64.70740       78.00753       61.57760
N         67.56712       79.49131       64.01627
C         68.60325       78.82018       64.79237
C         69.51550       77.87277       64.03463
O         70.41106       77.34000       64.67618
H         67.63195       80.51245       63.96483
H         68.12678       78.27772       65.63816
H         69.26287       79.60184       65.22957
N         69.38124       77.60419       62.70396
C         70.27596       76.70756       61.96917
C         70.95902       77.44248       60.81532
O         70.68951       78.61826       60.60376
C         69.51981       75.42863       61.52682
C         69.06205       74.59611       62.73824
O         68.43405       75.72794       60.68682
H         68.61692       78.04445       62.18486
H         71.10538       76.36855       62.62915
H         70.21652       74.77649       60.95956
H         67.69917       76.09176       61.24630
H         68.56693       73.66430       62.39249
H         69.93756       74.31412       63.36252
H         68.34669       75.16437       63.36998
N         71.94001       76.82038       60.09420
C         72.83341       77.49566       59.14883
C         72.81430       76.81250       57.77246
O         72.88897       75.59361       57.70127
C         74.26034       77.50746       59.77868
C         74.28493       78.22811       61.16307
C         75.31691       78.11914       58.84407
C         73.94396       79.72754       61.13782
H         72.15677       75.83625       60.31641
H         72.54024       78.55354       59.00579
H         74.56071       76.45062       59.95650
H         75.29836       78.11971       61.60556
H         73.57855       77.72514       61.85726
H         75.38325       77.54907       57.89543
H         75.07779       79.17138       58.60648
H         76.31663       78.08338       59.32670
H         74.67341       80.29867       60.52914
H         72.92496       79.91636       60.74886
H         73.98353       80.12969       62.17212
N         72.77894       77.57066       56.63208
C         72.75065       77.06547       55.25389
C         74.02802       77.45895       54.50606
O         74.94068       77.97092       55.12865
C         71.49061       77.61033       54.52398
C         70.19695       77.11712       55.17654
O         71.52228       79.01555       54.42634
H         72.79729       78.58997       56.73854
H         72.69678       75.95473       55.23912
H         71.44828       77.21213       53.49165
H         71.15275       79.39996       55.26215
H         69.31837       77.48813       54.60858
H         70.17001       76.00638       55.18657
H         70.14040       77.49224       56.21157
N         74.17003       77.22859       53.16663
C         75.38689       77.51525       52.39744
C         75.82397       78.97701       52.47776
O         76.95082       79.22821       52.88096
C         75.21536       77.11220       50.90484
C         75.02220       75.60484       50.72027
O         74.11881       77.78405       50.33270
H         73.37905       76.80336       52.66654
H         76.21759       76.90069       52.81240
H         76.16209       77.37919       50.37397
H         74.43011       78.21616       49.49490
H         74.09605       75.24578       51.21340
H         74.94598       75.37256       49.63668
H         75.89069       75.05445       51.13843
N         74.99991       79.98792       52.08610
C         75.38795       81.40196       52.07886
C         75.82616       81.85934       53.45133
O         76.85810       82.50571       53.56948
C         74.20611       82.27533       51.59543
C         73.95223       82.06390       50.09475
C         72.74043       82.85887       49.59317
C         72.60767       82.82093       48.05850
N         72.49290       81.46046       47.52828
H         74.04411       79.74005       51.79292
H         76.23881       81.56940       51.38065
H         74.45178       83.35185       51.73954
H         73.29695       82.04652       52.19606
H         73.78064       80.98822       49.88853
H         74.86043       82.39498       49.54470
H         72.84588       83.92572       49.88876
H         71.81787       82.45665       50.06685
H         73.49077       83.31832       47.59897
H         71.70327       83.40230       47.77286
H         71.69431       80.95857       47.97868
H         72.32636       81.51299       46.49745
H         73.38180       80.93128       47.67731
N         75.08165       81.54175       54.53665
C         75.38599       81.98390       55.89316
C         76.77363       81.52310       56.30675
O         77.59487       82.35767       56.65986
C         74.29938       81.47701       56.86659
C         72.91543       81.99878       56.44065
C         71.81230       81.59086       57.34918
O         70.99234       82.53214       57.80689
O         71.57535       80.42246       57.59192
H         74.26376       80.94079       54.36963
H         75.36230       83.09731       55.92607
H         74.53090       81.83375       57.89470
H         74.28544       80.36981       56.86481
H         72.62437       81.62912       55.44172
H         72.95101       83.10564       56.40048
N         77.11403       80.20877       56.23418
C         78.42948       79.68734       56.53884
H         79.13087       80.47679       56.87847
H         78.34425       78.91586       57.33184
H         78.85046       79.21317       55.62591
H         76.41340       79.53954       55.91227
Ca        68.74168       81.44699       59.31762
O         68.97830       77.19146       58.26106
H         68.69234       77.68798       59.06313
H         68.17911       76.68031       57.98077
O         67.95457       79.51498       56.52380
H         67.00661       79.30327       56.71583
H         68.03265       79.43251       55.54036

Ca 1.0



