%chk=holoCaM.loop1.water2.frame282.chk
%nprocshared=20
%mem=10GB
%nosave
#b3lyp/svp scf=(tight,noincore,xqc) Test 
#IOP(5/87=12) Density=Current Pop=(MK,readradii) iop(6/33=2) iop(6/42=6)

holoCaM.loop1.water2.frame282 

   0  1 
C         25.50618       85.14672       38.86953
C         25.07641       84.56994       37.55316
O         25.13897       85.25957       36.54542
H         25.84883       86.19647       38.75065
H         24.64442       85.13618       39.57195
H         26.33009       84.53996       39.29789
N         24.59408       83.29751       37.50138
C         24.06859       82.68217       36.28502
C         22.93139       83.53698       35.73657
O         21.92516       83.70859       36.41078
C         23.61150       81.23904       36.59921
C         22.67155       80.67340       35.57467
O         23.01013       80.44635       34.29493
O         21.52385       80.43145       35.91289
H         24.57002       82.76216       38.38392
H         24.87172       82.62794       35.52494
H         23.04011       81.26432       37.55362
H         24.49365       80.57907       36.75490
N         23.06037       84.12898       34.51260
C         22.11323       85.10959       33.98918
C         21.03553       84.49579       33.10976
O         20.08039       85.20379       32.82183
C         22.87736       86.22191       33.21348
C         23.44379       85.73817       31.85615
C         24.49549       86.70054       31.28065
C         25.15219       86.16057       29.99413
N         24.24250       86.19109       28.84844
H         23.95272       83.99984       34.02287
H         21.62559       85.60232       34.86027
H         23.70356       86.56946       33.87253
H         22.21485       87.09274       33.01516
H         22.60584       85.58499       31.14479
H         23.94272       84.76858       31.98895
H         25.30310       86.80225       32.03455
H         24.06858       87.70979       31.10284
H         25.52452       85.12376       30.16055
H         26.03444       86.79493       29.75579
H         23.95299       87.17794       28.65717
H         24.74472       85.82374       28.00775
H         23.40018       85.59803       29.01683
N         21.16311       83.24808       32.55378
C         20.21312       82.73805       31.55675
C         19.61820       81.36061       31.85957
O         18.66670       80.99958       31.18102
C         20.84502       82.79948       30.14940
C         22.07830       81.95764       29.94961
O         22.57843       81.19265       30.93684
O         22.64092       81.97578       28.86705
H         22.01509       82.70750       32.75433
H         19.33537       83.41870       31.51890
H         21.12223       83.85687       29.94429
H         20.08621       82.49620       29.39660
N         20.08619       80.54663       32.84749
C         19.42090       79.31513       33.26261
C         20.21513       78.03510       33.06119
O         19.76923       77.01833       33.57505
H         20.90753       80.83779       33.37844
H         18.44316       79.17887       32.75475
H         19.20991       79.42102       34.34885
N         21.35646       77.96583       32.31340
C         22.09614       76.70591       32.13068
C         22.76080       76.20718       33.42024
O         23.29698       75.10783       33.40576
C         23.11695       76.80975       30.96512
C         24.03653       77.98548       31.10805
O         24.82823       78.10367       32.18211
O         23.99448       78.89072       30.29174
H         21.67166       78.81527       31.82539
H         21.37047       75.92042       31.82015
H         22.54183       76.93690       30.02117
H         23.70319       75.86954       30.87407
N         22.75236       76.93771       34.57227
C         23.31653       76.48015       35.83294
C         24.80994       76.26541       35.75729
O         25.28107       75.22500       36.18824
H         22.31369       77.86681       34.58405
H         22.79870       75.55820       36.17727
H         23.13759       77.27088       36.59463
N         25.60748       77.26058       35.28321
C         27.08092       77.24874       35.24202
C         27.60656       78.67684       35.01213
O         26.80493       79.58008       34.84096
C         27.67281       76.27939       34.16769
C         27.46256       74.77615       34.41118
O         27.23807       76.62722       32.88079
H         25.10121       78.11173       35.00131
H         27.45548       76.95667       36.24769
H         28.77569       76.40020       34.19155
H         26.31831       76.27081       32.77338
H         26.40472       74.47795       34.27890
H         28.04147       74.19744       33.66062
H         27.82176       74.49301       35.42342
N         28.93718       78.98475       35.07064
C         29.41294       80.36969       34.99801
C         30.41340       80.56658       33.86475
O         31.52015       80.05130       33.94433
C         29.98669       80.78206       36.38814
C         28.91885       80.68077       37.51741
C         30.62547       82.18091       36.38383
C         27.73629       81.65599       37.39983
H         29.62383       78.23790       35.25473
H         28.57982       81.05684       34.78787
H         30.79686       80.06253       36.64231
H         29.41572       80.87300       38.49255
H         28.51779       79.64566       37.55746
H         31.02297       82.42178       37.39221
H         31.48079       82.21429       35.68265
H         29.89678       82.95976       36.09078
H         27.04452       81.49735       38.25333
H         28.07627       82.71071       37.43513
H         27.15720       81.49714       36.47177
N         30.08905       81.34704       32.78580
C         31.05632       81.73896       31.75620
C         31.99562       82.80938       32.30790
O         31.79969       83.26462       33.42414
C         30.35654       82.31666       30.48367
C         29.45936       81.30514       29.76790
O         29.64877       83.49791       30.76587
H         29.12431       81.69917       32.71450
H         31.63380       80.84232       31.43960
H         31.13613       82.58021       29.73843
H         28.76587       83.25720       31.14682
H         30.04159       80.40412       29.48323
H         28.61485       81.01479       30.42062
H         29.04892       81.76619       28.84318
N         33.00784       83.30706       31.54155
C         33.82429       84.45522       31.94365
C         32.96102       85.69291       32.12774
O         33.21868       86.47149       33.03473
C         34.92768       84.78789       30.90545
C         35.96081       83.66382       30.75789
O         34.38428       85.15333       29.65810
H         33.17008       82.87685       30.62113
H         34.33841       84.22660       32.90464
H         35.49000       85.66950       31.28702
H         34.08036       84.33242       29.19275
H         36.42905       83.44931       31.74219
H         35.49579       82.73384       30.37191
H         36.75667       83.98270       30.05220
N         31.93028       85.94210       31.27294
C         31.06274       87.11330       31.35876
C         30.33796       87.13047       32.69507
O         30.45165       88.10278       33.42806
C         30.05019       87.12531       30.18279
C         30.77130       87.19338       28.82030
C         29.79320       87.22687       27.63888
C         30.51607       87.17386       26.27741
N         31.40286       88.31949       26.06117
H         31.75443       85.25089       30.53082
H         31.68022       88.03537       31.27062
H         29.39317       88.01766       30.28110
H         29.40835       86.21762       30.21730
H         31.42264       86.30674       28.68451
H         31.40509       88.10377       28.80810
H         29.16080       88.13891       27.69684
H         29.12854       86.33667       27.69730
H         29.74668       87.15775       25.47431
H         31.10429       86.23172       26.20094
H         30.86805       89.21327       26.15113
H         32.19913       88.30689       26.73717
H         31.80422       88.25995       25.09753
N         29.59272       86.05874       33.08117
C         28.87476       85.97083       34.35332
C         29.81759       85.97418       35.55250
O         29.34043       86.15825       36.66374
C         28.05874       84.66025       34.39583
C         26.97643       84.59417       33.30167
C         26.38824       83.21761       33.15366
O         26.73657       82.30296       33.87700
O         25.49599       82.97274       32.17909
H         29.54582       85.26656       32.43109
H         28.18971       86.84472       34.43202
H         27.56893       84.52419       35.38582
H         28.78013       83.82723       34.24499
H         27.40145       84.85289       32.31383
H         26.17808       85.32626       33.53868
N         31.15007       85.72094       35.41450
C         32.08975       85.68447       36.51519
H         32.90361       86.41486       36.32335
H         31.61565       85.92864       37.48776
H         32.53428       84.66886       36.58178
H         31.52869       85.50799       34.48832
Ca        24.86834       80.13349       33.11388
O         26.08002       81.48813       29.63229
H         25.16002       81.21614       29.39267
H         26.49146       81.74977       28.77093
O         27.96269       78.61524       30.88354
H         27.79572       78.77175       29.92067
H         27.07633       78.73461       31.30348

Ca 1.0



