%chk=holoCaM-CaMKII.loop3.water2.frame211.chk
%nprocshared=20
%mem=10GB
%nosave
#b3lyp/svp scf=(tight,noincore,xqc) Test 
#IOP(5/87=12) Density=Current Pop=(MK,readradii) iop(6/33=2) iop(6/42=6)

holoCaM-CaMKII.loop3.water2.frame211 

   0  1 
C         41.43862       63.11851       27.89147
C         42.15350       63.51689       26.64114
O         42.45474       64.69121       26.47869
H         40.47035       62.64479       27.63667
H         42.07101       62.39860       28.45442
H         41.25921       64.00604       28.53597
N         42.50385       62.57346       25.72230
C         43.34098       62.90452       24.58345
C         42.63677       63.84973       23.61737
O         41.67814       63.45975       22.96576
C         43.82528       61.63618       23.85622
C         44.98751       61.93878       22.95759
O         45.56071       61.02923       22.38865
O         45.48937       63.18844       22.91073
H         42.25422       61.58840       25.90115
H         44.24526       63.39108       25.01939
H         42.99316       61.14490       23.30636
H         44.21195       60.92005       24.61487
N         43.06686       65.13360       23.51274
C         42.47941       66.13980       22.63935
C         42.82069       65.88377       21.18203
O         41.91103       65.84751       20.36533
C         42.97130       67.55130       23.03521
C         42.51775       67.92638       24.45870
C         42.91701       69.36034       24.81878
C         42.42254       69.72383       26.22631
N         42.77061       71.10292       26.56468
H         43.82281       65.42239       24.14009
H         41.37313       66.15005       22.76901
H         42.52792       68.28713       22.32761
H         44.07925       67.61699       22.95856
H         42.96396       67.23254       25.20234
H         41.41024       67.84032       24.51699
H         42.46339       70.06019       24.08312
H         44.02361       69.46137       24.77642
H         42.87846       69.03473       26.97207
H         41.31636       69.60739       26.27253
H         43.80897       71.22588       26.55094
H         42.32685       71.76193       25.88413
H         42.41519       71.31972       27.52389
N         44.11704       65.72456       20.77988
C         44.51263       65.62588       19.37382
C         44.64127       64.19002       18.87719
O         44.97498       64.01105       17.71337
C         45.76780       66.49104       19.09972
C         47.03518       66.02783       19.76639
O         47.05999       64.91805       20.52024
O         48.06463       66.66377       19.60872
H         44.85190       65.69940       21.50208
H         43.71391       66.07518       18.74256
H         45.55620       67.53032       19.43347
H         45.95692       66.51638       18.00465
N         44.30514       63.12070       19.65703
C         44.23597       61.76244       19.13903
C         45.56345       61.11886       18.79000
O         45.51926       60.01115       18.27220
H         43.96740       63.27445       20.61655
H         43.58959       61.76981       18.23240
H         43.74134       61.11011       19.89040
N         46.77529       61.70670       19.02599
C         48.02916       61.07240       18.61164
C         48.33216       59.75458       19.33728
O         49.28461       59.09639       18.94360
C         49.22933       62.05042       18.72063
C         49.63198       62.43978       20.12108
N         50.68902       63.25903       20.32258
O         49.02212       62.00709       21.08005
H         46.80663       62.64098       19.45336
H         47.92361       60.84395       17.52781
H         48.99128       62.97492       18.15086
H         50.11268       61.57355       18.24497
H         51.22898       63.62649       19.52623
H         50.97518       63.51845       21.27868
N         47.59249       59.31327       20.40015
C         47.83402       58.05263       21.09025
C         48.25970       58.22511       22.53736
O         48.48683       57.20961       23.18078
H         46.81387       59.88173       20.74278
H         48.63602       57.47099       20.58717
H         46.90506       57.44502       21.05053
N         48.45532       59.45224       23.10487
C         49.03302       59.63916       24.43345
C         48.19803       60.55700       25.31058
O         47.31050       61.24242       24.82379
C         50.41919       60.29440       24.24796
C         51.37362       59.39779       23.49998
C         51.75353       59.69152       22.17867
C         51.90226       58.26023       24.12916
C         52.64318       58.85453       21.49787
C         52.80327       57.43348       23.45258
C         53.17530       57.72704       22.13261
O         54.04286       56.93716       21.46824
H         48.27762       60.29613       22.55020
H         49.13904       58.66585       24.96046
H         50.88724       60.57078       25.21780
H         50.26338       61.23734       23.67881
H         51.35569       60.55982       21.67035
H         51.62829       58.02440       25.14988
H         52.92251       59.08491       20.47716
H         53.21268       56.56712       23.95628
H         54.44139       56.15461       21.87539
N         48.49353       60.64372       26.63861
C         47.93316       61.62962       27.55671
C         49.11036       62.37738       28.16329
O         49.99715       61.73796       28.71526
C         47.07374       60.97282       28.68028
C         45.89281       60.17132       28.07426
C         46.54395       62.06858       29.63878
C         45.05794       59.42685       29.12334
H         49.20347       59.99592       27.01663
H         47.26634       62.33936       27.01653
H         47.71644       60.27320       29.25929
H         46.29611       59.40588       27.37838
H         45.22561       60.84942       27.49670
H         45.88690       62.78209       29.09462
H         45.97899       61.63971       30.48834
H         47.37728       62.63740       30.09513
H         44.26905       58.83239       28.61743
H         45.70205       58.73716       29.70924
H         44.54485       60.12470       29.81551
N         49.15784       63.73484       28.14466
C         50.23395       64.51236       28.74576
C         49.74455       65.15024       30.03020
O         48.60690       64.92812       30.40698
C         50.74231       65.55263       27.73342
O         49.72996       66.46812       27.40190
H         48.35889       64.24590       27.75276
H         51.08875       63.85729       29.02163
H         51.12695       65.02980       26.82713
H         51.60107       66.11978       28.14629
H         49.40468       66.23237       26.49479
N         50.56189       65.93378       30.78221
C         50.13731       66.54276       32.04003
C         48.93767       67.45231       31.83646
O         47.94081       67.28635       32.52503
C         51.29372       67.33414       32.65669
H         51.52570       66.09497       30.45163
H         49.86671       65.74029       32.76342
H         50.98030       67.77098       33.62874
H         52.15462       66.65601       32.84057
H         51.62146       68.15156       31.98003
N         48.96310       68.42011       30.87942
C         47.85915       69.34093       30.61938
C         46.56126       68.60906       30.32778
O         45.55132       68.91112       30.94792
C         48.20702       70.23543       29.42048
H         49.81090       68.49254       30.29497
H         47.71221       70.00033       31.50330
H         49.13590       70.80795       29.62696
H         48.36703       69.62450       28.50483
H         47.38541       70.95735       29.22562
N         46.52563       67.63517       29.38100
C         45.31153       66.93158       28.97013
C         44.65114       66.23629       30.15333
O         43.46503       66.44282       30.36872
C         45.62658       65.93596       27.82573
C         46.18430       66.67152       26.58249
C         46.51471       65.75450       25.43976
O         46.07119       65.98200       24.32831
O         47.37030       64.73182       25.60496
H         47.42078       67.38994       28.93552
H         44.58410       67.66632       28.55698
H         44.69520       65.40552       27.53865
H         46.35362       65.18092       28.18677
H         47.12200       67.19874       26.83353
H         45.44957       67.43513       26.24323
N         45.37172       65.44153       30.99081
C         44.82285       64.78135       32.15881
H         43.72809       64.93321       32.25848
H         45.02431       63.69186       32.09399
H         45.31674       65.17876       33.07180
H         46.37235       65.32572       30.81884
Ca        47.69527       63.57719       22.79284
O         50.34579       63.91281       24.18124
H         50.62284       64.83086       24.42421
H         51.17822       63.48004       23.86599
O         49.04525       66.55263       22.81050
H         49.59853       66.31107       22.02557
H         49.66181       67.04966       23.40488

Ca 1.0



