%chk=holoCaM.loop2.water1.frame2.chk
%nprocshared=20
%mem=10GB
%nosave
#b3lyp/svp scf=(tight,noincore,xqc) Test 
#IOP(5/87=12) Density=Current Pop=(MK,readradii) iop(6/33=2) iop(6/42=6)

holoCaM.loop2.water1.frame2 

   -2  1 
C         81.45524       37.49827       48.94789
C         82.37620       36.31759       48.94001
O         81.90988       35.18737       48.90372
H         80.39440       37.17155       48.93058
H         81.63332       38.10155       49.86276
H         81.65413       38.12558       48.05337
N         83.72102       36.51549       48.96634
C         84.68116       35.42287       48.93608
C         84.51955       34.54331       50.17489
O         84.43728       35.09448       51.26453
C         86.12012       35.98330       48.87956
C         87.09362       34.90874       48.50594
O         86.63445       33.73913       48.03205
O         88.29177       35.11529       48.55511
H         84.07003       37.48707       48.98657
H         84.49588       34.84547       48.00245
H         86.38226       36.42642       49.86543
H         86.21181       36.77367       48.10318
N         84.49498       33.17720       50.09417
C         84.23052       32.32068       51.24820
C         85.47177       31.65629       51.83164
O         85.35112       31.11782       52.92387
C         83.17071       31.27976       50.87885
H         84.65341       32.72769       49.18523
H         83.82304       32.94575       52.07253
H         82.25397       31.78512       50.50734
H         83.55664       30.61248       50.07724
H         82.90278       30.65919       51.75962
N         86.69137       31.67403       51.21527
C         87.92012       31.21146       51.87137
C         88.94894       32.34680       51.96412
O         90.03089       32.11129       52.48341
C         88.43603       29.89495       51.22573
C         88.87902       29.98833       49.79902
O         89.11064       31.18393       49.25841
O         89.05421       28.97805       49.13801
H         86.76567       32.05756       50.26251
H         87.70386       30.92236       52.92336
H         87.58844       29.17649       51.26952
H         89.27117       29.46323       51.81893
N         88.65082       33.62481       51.55876
C         89.52484       34.77116       51.76623
C         90.78490       34.80665       50.92186
O         91.57034       35.72045       51.13097
H         87.71979       33.84232       51.18004
H         89.79960       34.80972       52.84327
H         88.95942       35.70110       51.53595
N         91.07133       33.87311       49.96859
C         92.34903       33.85893       49.25387
C         92.55583       35.04106       48.30663
O         93.66726       35.18855       47.81613
C         92.53730       32.53630       48.47587
C         91.71954       32.47385       47.20664
N         92.32044       32.29370       46.00760
O         90.50987       32.59881       47.25647
H         90.40662       33.11020       49.81244
H         93.13630       33.88062       50.04037
H         92.27927       31.68056       49.13769
H         93.61045       32.43411       48.20829
H         93.34223       32.18880       45.93614
H         91.76243       32.25253       45.14346
N         91.53745       35.88138       47.95452
C         91.69456       36.99642       47.03325
C         90.84565       36.88258       45.77417
O         90.89867       37.81546       44.98766
H         90.60283       35.73661       48.35071
H         92.75207       37.10800       46.70877
H         91.41155       37.92738       47.56918
N         90.07241       35.78719       45.48568
C         89.29650       35.66342       44.24217
C         87.82275       35.40734       44.52882
O         87.46499       35.20323       45.67444
C         89.84085       34.48270       43.40073
C         91.32384       34.64540       43.05934
O         89.65283       33.27908       44.10304
H         90.05735       34.99387       46.14011
H         89.37348       36.59566       43.64228
H         89.27170       34.45368       42.44128
H         89.50469       32.56480       43.42987
H         91.48793       35.58472       42.49125
H         91.94256       34.66314       43.98160
H         91.65681       33.78930       42.43447
N         86.91382       35.36330       43.50539
C         85.52883       34.92708       43.68344
C         85.29150       33.76241       42.73361
O         85.32468       33.96186       41.52729
C         84.51775       36.07882       43.41165
C         84.79706       37.27827       44.35320
C         83.07001       35.56453       43.58894
C         83.92275       38.50064       44.05986
H         87.22634       35.60413       42.55339
H         85.36941       34.58473       44.72990
H         84.64847       36.42143       42.36081
H         85.85080       37.60441       44.22237
H         84.65805       36.97260       45.41382
H         82.86100       34.71812       42.90443
H         82.90140       35.22153       44.63280
H         82.32512       36.34483       43.33998
H         84.21528       39.33359       44.73272
H         84.06396       38.82914       43.00795
H         82.84934       38.29176       44.23908
N         85.08533       32.50463       43.21289
C         84.90136       31.35059       42.33611
C         83.51003       31.35331       41.70987
O         82.68137       32.17322       42.08186
C         85.08832       30.03947       43.13495
C         86.42296       29.90572       43.82317
O         86.67250       28.80353       44.55452
O         87.27933       30.77183       43.73357
H         85.13554       32.35689       44.22777
H         85.68057       31.37990       41.54181
H         84.99426       29.17424       42.44813
H         84.29626       29.97198       43.90934
N         83.17760       30.43089       40.75881
C         81.82956       30.30420       40.20896
C         80.83474       29.91612       41.30064
O         79.86239       30.64205       41.43618
C         81.79813       29.35445       38.98442
C         80.38675       28.97659       38.57814
C         79.41568       29.95639       38.29771
C         80.02605       27.61864       38.50248
C         78.10959       29.58028       37.96429
C         78.72398       27.24851       38.15660
C         77.76487       28.22807       37.89248
H         83.90999       29.78559       40.42571
H         81.51197       31.29372       39.80694
H         82.37862       28.43486       39.17540
H         82.31213       29.86282       38.14012
H         79.65979       31.00894       38.35476
H         80.75213       26.84283       38.71155
H         77.36207       30.33728       37.76517
H         78.45800       26.20081       38.09894
H         76.75449       27.93842       37.63378
N         80.96749       28.82485       42.11923
C         80.05189       28.52214       43.21378
C         79.85113       29.69541       44.16382
O         78.71704       30.01071       44.49413
C         80.74381       27.36710       43.95529
C         81.45588       26.66171       42.82945
C         82.02614       27.83853       42.04863
H         79.08206       28.18034       42.78690
H         81.54595       27.75768       44.62279
H         80.06053       26.73576       44.56241
H         82.20777       25.90414       43.13644
H         80.68205       26.16465       42.19896
H         82.93171       28.25138       42.53258
H         82.24467       27.47040       41.03485
N         80.92923       30.38350       44.64102
C         80.84237       31.45967       45.63108
C         80.06468       32.68000       45.15028
O         79.75986       33.53107       45.97531
C         82.25612       31.93009       46.03090
C         83.09555       30.81639       46.68575
C         84.50356       31.25358       46.95969
O         84.88404       32.37035       46.65157
O         85.36370       30.39678       47.54017
H         81.85732       30.09621       44.29955
H         80.32450       31.05341       46.52835
H         82.18620       32.77441       46.75368
H         82.76685       32.30004       45.11288
H         83.16398       29.92608       46.03235
H         82.61513       30.51377       47.63954
N         79.73895       32.86458       43.84392
C         79.00259       34.01946       43.38131
H         78.00000       34.04417       43.85817
H         79.55850       34.94901       43.62647
H         78.87024       33.96452       42.27929
H         80.04065       32.18363       43.14600
Ca        87.90626       31.99026       47.60031
O         89.46860       29.77571       45.86897
H         90.07212       30.00936       46.61748
H         88.67048       29.38991       46.30956

Ca 1.0



