%chk=holoCaM.loop3.water2.frame53.chk
%nprocshared=20
%mem=10GB
%nosave
#b3lyp/svp scf=(tight,noincore,xqc) Test 
#IOP(5/87=12) Density=Current Pop=(MK,readradii) iop(6/33=2) iop(6/42=6)

holoCaM.loop3.water2.frame53 

   0  1 
C         89.23265       88.74088       37.92957
C         89.66953       89.92945       38.72288
O         89.95906       89.77906       39.90020
H         88.19733       88.91018       37.56670
H         89.91274       88.59304       37.06664
H         89.24160       87.82735       38.56277
N         89.74526       91.15757       38.13694
C         90.09028       92.35483       38.88945
C         88.96943       92.63817       39.87438
O         87.91478       93.10643       39.46605
C         90.32217       93.53537       37.92464
C         90.63469       94.81209       38.63917
O         91.69385       94.89831       39.46361
O         89.92324       95.78411       38.46547
H         89.54415       91.23379       37.12769
H         91.04604       92.16671       39.42991
H         89.41676       93.68453       37.29393
H         91.17126       93.29416       37.25110
N         89.09773       92.27154       41.17911
C         88.01086       92.40832       42.13906
C         87.95615       93.84064       42.61510
O         86.91986       94.48029       42.50347
C         88.17422       91.42619       43.32623
C         88.33180       89.94273       42.90459
C         87.27222       89.40614       41.92201
C         85.84675       89.41029       42.48847
N         84.89558       88.92497       41.48737
H         89.96808       91.80503       41.47540
H         87.04547       92.13932       41.65665
H         87.28205       91.52681       43.98145
H         89.06499       91.69316       43.93510
H         88.34743       89.30978       43.81840
H         89.31945       89.81911       42.41630
H         87.54203       88.35995       41.65819
H         87.30553       89.99501       40.98142
H         85.55397       90.43899       42.78749
H         85.80743       88.75578       43.38722
H         84.89553       89.56305       40.65785
H         85.14757       87.95638       41.18332
H         83.93561       88.91243       41.90093
N         89.08012       94.41454       43.12909
C         89.16323       95.79665       43.59988
C         88.87401       96.85627       42.52369
O         88.77905       98.02107       42.88584
C         90.53823       96.03853       44.26346
C         91.68233       95.70577       43.34690
O         91.79610       96.26817       42.27594
O         92.56390       94.74758       43.68841
H         89.91816       93.81772       43.20203
H         88.39081       95.92934       44.38938
H         90.61926       95.38265       45.15780
H         90.61899       97.09163       44.60791
N         88.66171       96.54277       41.21206
C         88.16400       97.49872       40.23211
C         89.11589       98.59014       39.76885
O         88.66660       99.37337       38.94250
H         88.73454       95.56592       40.90201
H         87.24051       97.97002       40.63665
H         87.85591       96.93967       39.32292
N         90.40128       98.75192       40.21671
C         91.20734       99.89056       39.75776
C         91.57098       99.82854       38.27064
O         91.97758      100.85386       37.74200
C         92.46305      100.16924       40.62295
C         93.61901       99.17394       40.45801
N         94.82562       99.65807       41.11599
O         93.27494       97.96334       41.03256
H         90.76704       98.12160       40.93888
H         90.56204      100.78622       39.90797
H         92.17762      100.24316       41.69571
H         92.84766      101.16439       40.31238
H         95.10159      100.57531       40.70131
H         95.59397       98.98052       40.90277
N         91.47496       98.67677       37.53914
C         91.75436       98.59998       36.10694
C         92.95940       97.74029       35.75953
O         93.24888       97.61096       34.57881
H         91.19020       97.80953       38.00834
H         91.94766       99.60883       35.68344
H         90.85513       98.19153       35.59893
N         93.74042       97.17310       36.72085
C         94.99019       96.46235       36.45714
C         94.93855       95.01204       37.00213
O         94.27894       94.79979       38.21932
C         96.14979       97.31197       37.02703
C         96.26568       98.60361       36.24211
C         95.88761       99.83290       36.80741
C         96.74017       98.57861       34.91676
C         95.97062      101.01143       36.05511
C         96.83425       99.75807       34.17255
C         96.44445      100.97931       34.73828
O         96.51915      102.12368       34.02794
H         93.48594       97.32210       37.70224
H         95.17588       96.34941       35.36663
H         97.12639       96.78561       36.96012
H         95.95485       97.51584       38.09986
H         95.50987       99.87802       37.82078
H         97.04369       97.64458       34.46005
H         95.66262      101.95169       36.49456
H         97.20626       99.72065       33.15565
H         96.83957      102.14362       33.11435
N         96.23375       94.31709       36.94159
C         96.34026       93.04059       37.68861
C         97.82390       92.75028       37.85252
O         98.48940       92.47031       36.86433
C         95.58465       91.83524       37.00177
C         94.03902       92.02982       37.01030
C         95.94480       90.50166       37.69407
C         93.23591       90.90105       36.35980
H         96.52834       94.19589       35.94478
H         95.93411       93.17410       38.71457
H         95.93090       91.75860       35.94729
H         93.77071       92.93306       36.43594
H         93.68315       92.14579       38.05651
H         95.48938       89.63927       37.16993
H         97.03326       90.30960       37.64737
H         95.61899       90.50338       38.75438
H         93.34102       89.94670       36.91254
H         92.15723       91.16378       36.37889
H         93.54867       90.76564       35.30370
N         98.41634       92.82323       39.08284
C         99.82987       92.52101       39.29168
C        100.07183       91.02598       39.18611
O         99.10993       90.27264       39.10739
C        100.30194       93.05328       40.65872
O         99.58001       92.45610       41.69954
H         97.84846       93.12329       39.88803
H        100.42152       93.05321       38.51422
H        100.13704       94.15463       40.67805
H        101.38695       92.84816       40.79121
H         99.85728       92.91862       42.53277
N        101.33377       90.51098       39.16529
C        101.56825       89.07367       39.07586
C        101.09924       88.35109       40.33217
O        100.79935       87.17027       40.25343
C        103.03965       88.76464       38.79360
H        102.13803       91.15908       39.17915
H        100.98710       88.69007       38.20627
H        103.34642       89.26177       37.84742
H        103.68661       89.13102       39.61799
H        103.18719       87.67023       38.67048
N        101.03271       88.99831       41.53354
C        100.50093       88.37628       42.74111
C         99.00037       88.21288       42.60709
O         98.49043       87.11224       42.77253
C        100.80596       89.24908       43.96761
H        101.36443       89.97155       41.59429
H        101.00150       87.39827       42.91925
H        100.35333       90.25897       43.87684
H        100.41299       88.76308       44.88701
H        101.90487       89.36527       44.08046
N         98.23402       89.29898       42.30249
C         96.77810       89.29130       42.20232
C         96.26975       88.32940       41.13568
O         95.10198       87.96904       41.18672
C         96.29820       90.73624       41.90741
C         94.77668       90.93352       41.89313
C         94.44290       92.37498       41.62472
O         94.88364       93.33796       42.45666
O         93.77075       92.68113       40.65339
H         98.72385       90.19284       42.15838
H         96.38502       88.96396       43.19110
H         96.71492       91.05592       40.92587
H         96.72079       91.40253       42.69262
H         94.35386       90.64293       42.87792
H         94.31290       90.30798       41.10238
N         97.07006       87.88370       40.12775
C         96.58269       86.98302       39.10735
H         95.72039       87.44064       38.57704
H         97.38651       86.77961       38.36874
H         96.26771       86.02406       39.56985
H         98.04543       88.20015       40.05960
Ca        94.31756       96.40499       39.79410
O         96.95303       95.25442       40.91450
H         97.57578       95.85773       40.43660
H         97.07144       95.47779       41.87119
O         95.05378       96.88997       43.14854
H         94.80318       96.33964       43.93197
H         95.16762       97.80341       43.51283

Ca 1.0



