%chk=holoCaM-CaMKII.loop2.water2.frame437.chk
%nprocshared=20
%mem=10GB
%nosave
#b3lyp/svp scf=(tight,noincore,xqc) Test 
#IOP(5/87=12) Density=Current Pop=(MK,readradii) iop(6/33=2) iop(6/42=6)

holoCaM-CaMKII.loop2.water2.frame437 

   -2  1 
C         66.41319       70.23876        8.37567
C         67.70027       70.66820        7.72639
O         67.79827       71.80953        7.30065
H         65.57605       70.32451        7.65293
H         66.46630       69.18611        8.72820
H         66.20499       70.88557        9.25442
N         68.74620       69.80110        7.63802
C         70.04948       70.15899        7.08728
C         69.97536       70.51879        5.61338
O         69.53025       69.70327        4.81833
C         71.04247       69.00126        7.32182
C         72.42654       69.21809        6.75717
O         73.17661       70.30470        7.05209
O         72.89191       68.37248        6.00989
H         68.62141       68.85372        8.02839
H         70.41577       71.02411        7.65898
H         70.62603       68.06739        6.88158
H         71.13808       68.84034        8.41473
N         70.45291       71.72544        5.18444
C         70.48119       72.14782        3.78925
C         71.90259       72.37336        3.26781
O         72.03272       72.68474        2.09181
C         69.69121       73.45791        3.66592
H         70.82515       72.38324        5.88265
H         70.00593       71.37870        3.14376
H         68.64947       73.31696        4.02278
H         70.16877       74.25198        4.28398
H         69.66030       73.80656        2.61193
N         73.00375       72.30215        4.07576
C         74.34148       72.71281        3.64390
C         75.46623       71.77393        4.10880
O         76.61792       72.07174        3.82276
C         74.56037       74.17548        4.09282
C         74.21793       74.41501        5.53602
O         73.33259       75.20013        5.83642
O         74.85499       73.74541        6.50131
H         72.87568       72.11419        5.07816
H         74.41391       72.72852        2.53395
H         73.88880       74.82064        3.48410
H         75.60445       74.49198        3.88387
N         75.22326       70.60716        4.77183
C         76.25444       69.64489        5.15288
C         77.23003       70.08060        6.23993
O         78.08017       69.26964        6.58094
H         74.25203       70.32868        4.93437
H         76.82755       69.35281        4.24622
H         75.74979       68.73107        5.53650
N         77.19959       71.30986        6.83250
C         78.17095       71.72372        7.85054
C         78.01290       71.01267        9.20301
O         78.81167       71.28603       10.08890
C         78.15768       73.26093        8.03387
C         76.88874       73.85034        8.59200
N         76.81245       75.18219        8.80322
O         75.92763       73.14447        8.85243
H         76.51253       71.99465        6.50513
H         79.18741       71.49314        7.45914
H         78.35538       73.73656        7.04817
H         78.98934       73.54295        8.71564
H         77.60904       75.79838        8.58666
H         75.95641       75.59714        9.18935
N         77.04014       70.08324        9.44132
C         76.91900       69.35671       10.70108
C         76.35902       70.16235       11.86644
O         76.23084       69.58697       12.93744
H         76.39591       69.81552        8.68665
H         77.90669       68.92147       10.96881
H         76.21627       68.50927       10.54919
N         75.97691       71.46659       11.74401
C         75.39721       72.25878       12.82711
C         74.04450       72.81825       12.42025
O         73.94972       73.44719       11.37697
C         76.31984       73.44024       13.21656
C         77.67520       72.97099       13.75538
O         76.48845       74.35301       12.15895
H         76.09918       71.92935       10.84206
H         75.27299       71.64516       13.74691
H         75.82263       73.98772       14.04915
H         77.07320       73.93039       11.47966
H         78.26756       73.85126       14.08315
H         77.52755       72.29996       14.62826
H         78.24338       72.42647       12.97253
N         72.96842       72.70102       13.24859
C         71.69014       73.37034       12.99777
C         71.92831       74.87690       12.92317
O         72.48593       75.44192       13.85332
C         70.64464       72.99619       14.10060
C         70.32560       71.47461       14.01857
C         69.34945       73.82319       13.94606
C         69.39596       70.96227       15.12053
H         73.09004       72.17452       14.12667
H         71.27149       73.02914       12.02968
H         71.07986       73.23266       15.09737
H         71.26227       70.88682       14.10172
H         69.86853       71.24211       13.03151
H         68.86735       73.61942       12.96784
H         68.62793       73.60020       14.75670
H         69.56029       74.90861       14.02625
H         69.26061       69.86607       15.00136
H         69.83879       71.15798       16.11952
H         68.39096       71.42500       15.06045
N         71.48992       75.58602       11.84114
C         71.64774       77.03157       11.68999
C         70.34170       77.72029       12.03698
O         69.39185       77.04615       12.39221
C         72.04599       77.38203       10.23773
C         73.33509       76.76119        9.79956
O         73.43880       75.54939        9.71498
O         74.36776       77.54762        9.44083
H         70.94498       75.09248       11.12193
H         72.42004       77.41704       12.39132
H         72.16054       78.48177       10.14466
H         71.24560       77.05860        9.53670
N         70.23075       79.07964       11.99220
C         68.99718       79.76863       12.34977
C         67.83771       79.42964       11.40748
O         66.79179       79.05634       11.92605
C         69.19808       81.29767       12.42612
C         68.05416       81.93739       13.18107
C         67.89924       81.67375       14.55616
C         67.13970       82.78901       12.54108
C         66.84986       82.24725       15.27533
C         66.08386       83.35664       13.26561
C         65.94035       83.08660       14.63049
H         71.05704       79.64066       11.74059
H         68.74306       79.43429       13.37979
H         69.30439       81.71912       11.40826
H         70.12962       81.54104       12.98148
H         68.59687       81.02722       15.07485
H         67.23495       83.00323       11.48436
H         66.74363       82.03897       16.33261
H         65.37448       84.00581       12.76996
H         65.12556       83.52721       15.19020
N         67.90941       79.50403       10.03233
C         66.78795       79.21709        9.14020
C         66.41461       77.73942        9.08274
O         65.51094       77.40220        8.33254
C         67.27091       79.73332        7.78036
C         68.74714       79.42862        7.84351
C         69.08939       79.86946        9.26464
H         65.88047       79.79395        9.42660
H         66.72806       79.33532        6.89585
H         67.17667       80.84355        7.77229
H         68.86129       78.32145        7.77455
H         69.37133       79.89713        7.05358
H         70.00346       79.32676        9.55805
H         69.23712       80.96679        9.32190
N         67.02271       76.81562        9.87691
C         66.63086       75.42038        9.94221
C         65.81290       75.22986       11.20458
O         64.67582       74.78821       11.11425
C         67.87909       74.52385        9.95980
C         68.81615       74.76144        8.76224
C         70.01896       73.86122        8.82596
O         70.98687       73.94896        7.90012
O         70.12061       73.01761        9.70120
H         67.75727       77.10810       10.52413
H         66.00575       75.13703        9.06557
H         67.55196       73.46021        9.98022
H         68.46392       74.72891       10.88154
H         69.16968       75.81388        8.76928
H         68.27597       74.57219        7.80980
N         66.31773       75.60093       12.41576
C         65.58339       75.53947       13.65964
H         64.56395       75.12359       13.52906
H         66.14241       74.91279       14.38464
H         65.49423       76.56732       14.07367
H         67.26713       75.98358       12.46888
Ca        72.44360       72.23064        7.96275
O         73.94442       70.21007        9.75233
H         73.77965       70.01657       10.70785
H         74.06134       69.31774        9.34044
O         71.06323       70.50681       10.36412
H         71.62037       70.96730       11.03854
H         70.64376       69.75797       10.85498

Ca 1.0



