%chk=holoCaM-CaMKII.loop3.water2.frame160.chk
%nprocshared=20
%mem=10GB
%nosave
#b3lyp/svp scf=(tight,noincore,xqc) Test 
#IOP(5/87=12) Density=Current Pop=(MK,readradii) iop(6/33=2) iop(6/42=6)

holoCaM-CaMKII.loop3.water2.frame160 

   0  1 
C         95.62663       92.35145       35.35550
C         96.17180       91.19930       36.14347
O         96.17682       91.27371       37.35971
H         94.57072       92.52960       35.64899
H         96.22329       93.26310       35.56887
H         95.66259       92.14840       34.26489
N         96.67309       90.10160       35.51683
C         97.20532       88.94750       36.22532
C         98.70533       88.92066       36.01859
O         99.24314       88.01561       35.39574
C         96.46216       87.68951       35.74483
C         96.90195       86.45763       36.47340
O         97.35150       85.51464       35.84598
O         96.78503       86.37890       37.81327
H         96.70182       90.08655       34.48563
H         97.03683       89.03148       37.32245
H         96.61003       87.55818       34.65078
H         95.37758       87.81897       35.93095
N         99.44121       89.93872       36.54345
C        100.89027       90.05004       36.42679
C        101.54956       88.88661       37.14683
O        102.30847       88.15053       36.53239
C        101.38513       91.39295       37.02189
C        100.76753       92.61536       36.31197
C        101.28994       93.92953       36.90983
C        100.68010       95.17977       36.24791
N         99.24030       95.30343       36.49509
H         98.92970       90.66505       37.06545
H        101.17495       90.04111       35.35049
H        102.49166       91.44076       36.91780
H        101.13465       91.44592       38.10395
H         99.66826       92.58875       36.42418
H        101.01241       92.58086       35.22822
H        102.39179       93.96324       36.76587
H        101.08099       93.96229       38.00167
H        100.87676       95.16673       35.15312
H        101.18684       96.07313       36.67529
H         98.70914       94.53217       36.03362
H         99.04912       95.30392       37.52357
H         98.90423       96.20839       36.09347
N        101.26663       88.65430       38.46135
C        101.83410       87.55583       39.24859
C        101.56317       86.16500       38.65752
O        102.26741       85.23228       39.01789
C        101.33722       87.62753       40.71154
C         99.84423       87.41676       40.79565
O         99.06611       88.16105       40.22230
O         99.35607       86.36146       41.45607
H        100.63048       89.31904       38.92165
H        102.93732       87.70327       39.24142
H        101.59759       88.61455       41.15076
H        101.85400       86.84277       41.30701
N        100.60365       85.96377       37.71275
C        100.47274       84.74508       36.93236
C        100.07090       83.48413       37.67201
O        100.79205       82.50445       37.54526
H         99.98986       86.74503       37.45083
H        101.43111       84.57035       36.39433
H         99.70761       84.91238       36.15056
N         98.89195       83.38668       38.36009
C         98.34437       82.09372       38.79747
C         96.99288       81.77275       38.14834
O         96.52795       80.65666       38.33852
C         98.29520       81.93035       40.33600
C         97.64430       83.04603       41.15288
N         97.44283       82.65789       42.54381
O         96.46917       83.56782       40.63053
H         98.33329       84.24025       38.50317
H         99.00612       81.27159       38.44780
H         99.33902       81.86293       40.71112
H         97.80077       80.96315       40.57200
H         98.37430       82.47330       42.97815
H         97.01751       83.46670       43.05341
N         96.30813       82.66245       37.36909
C         95.04727       82.35585       36.70298
C         93.87392       83.11131       37.29906
O         92.77265       82.96809       36.78958
H         96.67152       83.61077       37.23707
H         94.80117       81.27412       36.77697
H         95.15251       82.59922       35.62410
N         94.01798       83.86052       38.42937
C         92.92091       84.47980       39.15659
C         93.22242       85.93652       39.42414
O         94.30097       86.23452       39.91813
C         92.74414       83.80243       40.53341
C         92.22181       82.38809       40.44914
C         93.00710       81.34164       39.93501
C         90.92437       82.10446       40.91046
C         92.49713       80.04057       39.87466
C         90.41700       80.80620       40.84784
C         91.20173       79.76856       40.32837
O         90.72280       78.51018       40.26436
H         94.94469       83.94047       38.85689
H         91.95187       84.38461       38.61811
H         92.00213       84.41257       41.09680
H         93.68924       83.81865       41.11730
H         94.01534       81.52345       39.58991
H         90.29859       82.89041       41.31542
H         93.11109       79.24226       39.47738
H         89.41371       80.61022       41.20443
H         89.83242       78.28445       40.57016
N         92.25547       86.88221       39.24514
C         92.42190       88.26268       39.69278
C         91.46866       88.56984       40.83595
O         90.54283       87.81532       41.09581
C         92.24340       89.28321       38.53319
C         90.83862       89.17698       37.88085
C         93.37003       89.10454       37.50653
C         90.54788       90.28764       36.87217
H         91.34187       86.59195       38.86790
H         93.43999       88.39970       40.11522
H         92.34733       90.30262       38.96319
H         90.06172       89.25542       38.67116
H         90.71992       88.19620       37.37318
H         93.33160       89.88798       36.72377
H         94.35653       89.19739       38.00815
H         93.30179       88.10608       37.02740
H         90.62425       91.28046       37.36437
H         91.24105       90.24627       36.00888
H         89.51515       90.16457       36.48245
N         91.69097       89.68167       41.58771
C         90.85216       90.12635       42.68986
C         90.43360       91.57347       42.45746
O         90.80618       92.15755       41.44954
C         91.64813       89.98103       44.00046
O         92.81346       90.75861       43.95889
H         92.52928       90.23837       41.38699
H         89.93916       89.49818       42.77615
H         91.91698       88.90683       44.12413
H         91.02774       90.28975       44.86904
H         93.35556       90.49145       44.74593
N         89.67710       92.22875       43.38258
C         89.34214       93.64696       43.27787
C         90.60218       94.49107       43.22523
O         90.66890       95.40609       42.41712
C         88.48967       94.08181       44.47231
H         89.36034       91.70844       44.21395
H         88.73593       93.82621       42.36131
H         88.22022       95.15580       44.37316
H         87.55033       93.48955       44.49886
H         89.03879       93.93396       45.42629
N         91.65822       94.20904       44.04049
C         92.92268       94.93556       44.00583
C         93.56635       94.87171       42.63117
O         93.86035       95.91830       42.07034
C         93.89272       94.35862       45.04613
H         91.56341       93.42261       44.70242
H         92.73866       95.99968       44.27503
H         94.84739       94.92726       45.03767
H         93.44958       94.43433       46.06155
H         94.11412       93.28975       44.83711
N         93.82404       93.67324       42.03046
C         94.50661       93.56336       40.74022
C         93.71928       94.18781       39.58869
O         94.27535       94.30093       38.50407
C         94.78694       92.08932       40.38547
C         95.68936       91.36303       41.39625
C         95.87422       89.92153       41.01189
O         96.38310       89.62606       39.94281
O         95.48309       88.94535       41.85339
H         93.54886       92.81644       42.52950
H         95.47982       94.09643       40.82445
H         95.28709       92.05504       39.40346
H         93.82087       91.56421       40.28829
H         95.24397       91.39309       42.41079
H         96.68152       91.86131       41.43400
N         92.42817       94.59736       39.72736
C         91.68676       95.20809       38.64671
H         90.65883       95.45620       38.98891
H         92.18833       96.14644       38.32800
H         91.61736       94.50849       37.78748
H         91.93979       94.46496       40.61697
Ca        97.31678       85.63767       40.84641
O         94.90684       85.76865       42.79690
H         94.53936       84.92702       43.16607
H         94.20930       86.44752       42.97761
O         97.45569       87.24886       43.69814
H         98.22757       87.64063       44.17839
H         97.62268       86.27285       43.71470

Ca 1.0



