%chk=holoCaM.loop2.water2.frame257.chk
%nprocshared=20
%mem=10GB
%nosave
#b3lyp/svp scf=(tight,noincore,xqc) Test 
#IOP(5/87=12) Density=Current Pop=(MK,readradii) iop(6/33=2) iop(6/42=6)

holoCaM.loop2.water2.frame257 

   -2  1 
C         67.55565       98.02034       63.20210
C         67.61822       98.07576       61.70113
O         66.76558       97.50014       61.04140
H         66.50780       98.15152       63.54560
H         67.95474       97.05217       63.56598
H         68.15330       98.84508       63.64919
N         68.61372       98.77496       61.09552
C         68.70893       98.98534       59.65706
C         68.85021       97.69208       58.86010
O         69.74310       96.90272       59.13368
C         69.89647       99.91516       59.35897
C         69.95012      100.24302       57.90284
O         68.87264      100.78854       57.31196
O         70.94810       99.99185       57.24730
H         69.32374       99.21766       61.70053
H         67.78824       99.52041       59.33366
H         70.85139       99.44723       59.68633
H         69.75852      100.86561       59.91813
N         68.02255       97.46969       57.79690
C         68.08181       96.31044       56.91638
C         68.38333       96.68962       55.46026
O         68.44032       95.78220       54.64152
C         66.72442       95.59408       56.98366
H         67.30968       98.17515       57.58505
H         68.87013       95.60475       57.25403
H         66.49418       95.30694       58.03162
H         65.91299       96.26367       56.61905
H         66.72699       94.67395       56.36159
N         68.53505       97.98772       55.04674
C         68.65012       98.36923       53.63351
C         69.75975       99.37925       53.32478
O         70.29136       99.31363       52.22500
C         67.27017       98.79467       53.08768
C         66.58396       99.90038       53.82873
O         67.17185      100.54134       54.84824
O         65.42631      100.17022       53.55093
H         68.43689       98.73246       55.74226
H         68.89893       97.47184       53.02527
H         66.60427       97.90781       53.18478
H         67.33264       99.05786       52.01069
N         70.12422      100.37169       54.18822
C         71.18306      101.33897       53.91821
C         70.65316      102.73580       53.63804
O         71.46152      103.63371       53.45110
H         69.63154      100.46970       55.07682
H         71.78450      101.04198       53.03285
H         71.87179      101.35698       54.79117
N         69.31731      102.98408       53.51571
C         68.76086      104.26828       53.08278
C         68.86173      105.40604       54.11358
O         68.38750      106.49255       53.80995
C         67.29238      104.06335       52.63424
C         66.35986      103.66939       53.74485
N         65.05098      103.46270       53.49284
O         66.77912      103.53788       54.88035
H         68.66839      102.19340       53.61504
H         69.30404      104.58202       52.16408
H         67.26377      103.26902       51.85505
H         66.91284      105.00146       52.17720
H         64.67225      103.55529       52.53987
H         64.41719      103.21478       54.26190
N         69.47430      105.25986       55.32541
C         69.63763      106.35326       56.27899
C         68.39783      106.74474       57.07974
O         68.51337      107.67971       57.85665
H         69.93902      104.37162       55.54774
H         70.04052      107.24025       55.74129
H         70.39820      106.05427       57.03155
N         67.19805      106.09990       56.96751
C         65.99985      106.47118       57.73331
C         65.38830      105.27173       58.45957
O         65.85790      104.15787       58.30299
C         64.95302      107.10956       56.78350
C         65.46221      108.42282       56.17525
O         64.54371      106.20812       55.78333
H         67.11651      105.33773       56.29503
H         66.25328      107.22321       58.51097
H         64.05054      107.38796       57.36557
H         65.29362      106.09588       55.14383
H         65.71917      109.13733       56.98739
H         66.36311      108.25323       55.54977
H         64.66913      108.87854       55.54650
N         64.27807      105.44832       59.24108
C         63.54603      104.36289       59.88748
C         62.29637      104.11620       59.06544
O         61.55112      105.04810       58.80202
C         63.18326      104.71555       61.36347
C         64.45967      105.01107       62.19056
C         62.36772      103.56742       62.00531
C         64.16851      105.46360       63.62554
H         63.87554      106.39195       59.32116
H         64.15051      103.43074       59.90061
H         62.54891      105.62990       61.35609
H         65.02463      105.83232       61.70079
H         65.11075      104.11094       62.22202
H         62.01996      103.83361       63.02284
H         61.44842      103.35646       61.42436
H         62.97246      102.63669       62.06124
H         63.52406      106.36831       63.62193
H         63.67684      104.66477       64.21665
H         65.12261      105.70931       64.13668
N         62.00300      102.85505       58.64850
C         60.85533      102.52165       57.81393
C         59.75982      101.96197       58.68663
O         59.96254      101.81846       59.88141
C         61.24987      101.46302       56.76318
C         62.51019      101.79394       56.03532
O         63.62124      102.00531       56.76513
O         62.55596      101.76274       54.81676
H         62.60392      102.08723       58.96573
H         60.47842      103.43576       57.30696
H         60.41853      101.28200       56.04691
H         61.46490      100.50833       57.29240
N         58.54609      101.64866       58.15825
C         57.46094      101.14942       58.98798
C         57.78481       99.78018       59.57785
O         57.60249       99.64019       60.78012
C         56.11391      101.21598       58.24593
C         54.94893      100.92072       59.16350
C         54.74009      101.68243       60.33241
C         54.04804       99.89082       58.85195
C         53.66179      101.40609       61.17421
C         52.96233       99.62627       59.69262
C         52.77168      100.38028       60.85390
H         58.37752      101.82348       57.15682
H         57.36016      101.86667       59.82944
H         56.10988      100.54525       57.36640
H         55.98172      102.25366       57.86901
H         55.40655      102.49081       60.60297
H         54.18067       99.29829       57.95570
H         53.51590      101.99161       62.07325
H         52.26742       98.83624       59.44273
H         51.93280      100.17279       61.50462
N         58.30343       98.73293       58.85877
C         58.77191       97.49037       59.46247
C         59.78790       97.72907       60.57522
O         59.61084       97.21549       61.66924
C         59.44078       96.74014       58.29689
C         58.63089       97.22000       57.11801
C         58.50085       98.71049       57.42210
H         57.89107       96.92169       59.83678
H         60.47246       97.12123       58.12119
H         59.50216       95.63878       58.43014
H         59.05831       96.98591       56.11965
H         57.62105       96.75490       57.19441
H         59.43089       99.26095       57.17595
H         57.64449       99.09855       56.84285
N         60.88308       98.51409       60.34694
C         61.93239       98.76052       61.34187
C         61.43305       99.58529       62.52586
O         62.16052       99.70717       63.50174
C         63.10653       99.52783       60.69902
C         63.72638       98.78768       59.49988
C         64.72423       99.62614       58.76162
O         65.04676      100.86659       59.17373
O         65.21322       99.19090       57.73563
H         60.96944       98.94097       59.41434
H         62.30359       97.77706       61.70491
H         63.90492       99.72838       61.44809
H         62.70321      100.49921       60.36456
H         62.95164       98.52561       58.75485
H         64.20725       97.84765       59.84371
N         60.23161      100.22414       62.48715
C         59.69686      101.04518       63.55009
H         58.71016      100.63868       63.85766
H         60.36343      101.08071       64.43462
H         59.54797      102.07860       63.16968
H         59.66326      100.15912       61.64530
Ca        65.67511      101.50110       56.15094
O         67.24906      102.38629       60.38223
H         66.32685      102.69706       60.55743
H         67.60307      102.14585       61.27329
O         68.75243      103.42962       57.45579
H         68.16393      103.28647       58.23254
H         69.66771      103.38586       57.82923

Ca 1.0



