%chk=holoCaM-CaMKII.loop3.water1.frame393.chk
%nprocshared=20
%mem=10GB
%nosave
#b3lyp/svp scf=(tight,noincore,xqc) Test 
#IOP(5/87=12) Density=Current Pop=(MK,readradii) iop(6/33=2) iop(6/42=6)

holoCaM-CaMKII.loop3.water1.frame393 

   0  1 
C         64.55508       93.81590       84.66356
C         65.21427       94.41341       85.86830
O         64.73162       94.18292       86.96789
H         63.50796       94.17891       84.59828
H         65.08843       94.09171       83.73044
H         64.55167       92.70980       84.75924
N         66.31641       95.20742       85.73803
C         67.00060       95.80634       86.87311
C         66.83565       97.30983       86.80728
O         67.25846       97.93156       85.84211
C         68.47914       95.37582       86.88227
C         69.22919       95.81385       88.11260
O         70.52148       95.47917       88.24514
O         68.68694       96.45624       88.99662
H         66.67973       95.40902       84.79356
H         66.54861       95.44030       87.81877
H         68.99272       95.77122       85.97918
H         68.52581       94.26656       86.84906
N         66.17734       97.94875       87.81062
C         65.87632       99.37392       87.81143
C         67.14731      100.21206       87.83436
O         67.19817      101.22713       87.15464
C         64.98482       99.69977       89.03116
C         64.25783      101.04919       88.91067
C         63.43360      101.40407       90.16442
C         62.39135      100.34026       90.55960
N         61.62048      100.76978       91.72596
H         65.83112       97.37781       88.59740
H         65.27865       99.59818       86.89894
H         65.58836       99.65746       89.96179
H         64.19358       98.92170       89.08184
H         63.58206      101.00942       88.02700
H         64.99362      101.86469       88.74760
H         62.90939      102.36428       89.96473
H         64.12775      101.55752       91.01831
H         62.90348       99.39215       90.81773
H         61.69994      100.14629       89.71043
H         62.26107      100.96922       92.52876
H         61.06595      101.62520       91.49422
H         60.96436      100.00410       92.00401
N         68.21759       99.82935       88.59364
C         69.44495      100.60990       88.73861
C         70.66088       99.96668       88.06355
O         71.72610      100.56689       88.11452
C         69.67747      100.90594       90.23771
C         69.78261       99.67072       91.09411
O         70.68260       98.86827       90.92153
O         68.88175       99.45287       92.07091
H         68.15668       98.93997       89.10811
H         69.33144      101.59502       88.23463
H         68.81484      101.50474       90.60359
H         70.59366      101.52089       90.36830
N         70.57418       98.80986       87.34157
C         71.66854       98.29125       86.52559
C         72.89575       97.78462       87.26632
O         73.84914       97.43207       86.58555
H         69.66776       98.33341       87.26176
H         71.98777       99.09835       85.82921
H         71.29085       97.44977       85.90572
N         72.97799       97.71758       88.62624
C         74.20633       97.31788       89.31793
C         74.63767       95.86631       89.09056
O         75.72333       95.52988       89.54392
C         74.10709       97.59485       90.83865
C         73.06342       96.78724       91.57838
N         72.94573       96.91495       92.91870
O         72.32596       96.01755       90.98333
H         72.17344       98.02419       89.18356
H         75.02139       97.97115       88.93236
H         73.89355       98.67391       90.99679
H         75.09596       97.37758       91.29888
H         73.56196       97.55312       93.44255
H         72.24531       96.36432       93.43553
N         73.86398       94.94824       88.43867
C         74.27920       93.56468       88.23490
C         73.37617       92.54913       88.91296
O         73.65886       91.36716       88.77798
H         72.94949       95.22621       88.06486
H         75.30706       93.39053       88.61675
H         74.29136       93.35969       87.14271
N         72.27174       92.90594       89.63249
C         71.37467       91.92831       90.24391
C         70.06415       92.62084       90.70515
O         70.40693       93.63016       91.62153
C         72.04101       91.13804       91.41921
C         72.25151       91.96431       92.67443
C         71.39302       91.78248       93.77796
C         73.25578       92.94336       92.74819
C         71.52209       92.57698       94.91901
C         73.39563       93.72429       93.90302
C         72.52480       93.55213       94.98587
O         72.65540       94.33118       96.07922
H         72.02183       93.89930       89.69724
H         71.08775       91.19927       89.45374
H         72.98780       90.64399       91.12061
H         71.34259       90.31011       91.66741
H         70.59888       91.04691       93.74529
H         73.92806       93.10336       91.91569
H         70.83625       92.43840       95.74632
H         74.17405       94.47484       93.95257
H         72.06044       94.25505       96.83963
N         69.14784       91.63760       91.31911
C         67.78903       92.14208       91.60194
C         67.20371       91.44154       92.80923
O         67.73086       90.43025       93.25563
C         66.79685       92.07131       90.38928
C         66.57891       90.62026       89.87430
C         67.23773       93.01335       89.26482
C         65.43902       90.49040       88.86019
H         69.11606       90.74367       90.78158
H         67.87197       93.18448       91.94004
H         65.81494       92.45018       90.75029
H         66.31496       89.96578       90.73194
H         67.50375       90.22588       89.40440
H         68.19631       92.68655       88.81535
H         66.47684       93.05346       88.46474
H         67.34540       94.04310       89.66287
H         65.32428       89.42303       88.57413
H         64.48416       90.83878       89.30792
H         65.64386       91.06255       87.93343
N         66.12403       91.99522       93.42766
C         65.49711       91.46284       94.62713
C         64.00326       91.28251       94.40569
O         63.51655       91.54728       93.31328
C         65.77084       92.43555       95.78990
O         65.20376       93.69042       95.52632
H         65.75319       92.88558       93.05731
H         65.93698       90.47944       94.90449
H         66.87224       92.54233       95.91194
H         65.35570       92.02545       96.73613
H         65.34008       94.23182       96.34690
N         63.20344       90.86401       95.42420
C         61.75166       90.76049       95.32313
C         61.12667       92.09464       94.95440
O         60.22755       92.11058       94.12697
C         61.16168       90.27751       96.65105
H         63.64519       90.63612       96.32865
H         61.48198       90.00466       94.55112
H         61.39297       90.99237       97.46953
H         60.05852       90.17473       96.56294
H         61.58323       89.28296       96.91070
N         61.56502       93.25699       95.52093
C         61.00143       94.56356       95.19283
C         61.12134       94.86964       93.70745
O         60.09871       95.06930       93.06572
C         61.68983       95.66472       96.01284
H         62.33122       93.20707       96.20996
H         59.92469       94.56257       95.47449
H         61.56191       95.46578       97.09809
H         62.77813       95.70917       95.79331
H         61.23951       96.65412       95.78321
N         62.33767       94.93459       93.09298
C         62.49254       95.26054       91.67256
C         61.94931       94.17346       90.74754
O         61.92326       94.40126       89.54530
C         63.97740       95.48143       91.33215
C         64.58036       96.69730       92.05677
C         66.04723       96.73703       91.78393
O         66.77702       95.67564       92.14774
O         66.56891       97.67835       91.21172
H         63.17942       94.77682       93.66780
H         61.94332       96.20580       91.46355
H         64.10297       95.64996       90.23854
H         64.52891       94.55226       91.60127
H         64.44548       96.61680       93.15480
H         64.08813       97.62675       91.70630
N         61.52344       92.96610       91.21050
C         61.02037       91.93404       90.33138
H         60.12132       92.30014       89.79226
H         61.80379       91.64337       89.59972
H         60.73895       91.03754       90.92472
H         61.56860       92.75236       92.21009
Ca        68.90175       95.30323       91.61358
O         69.67949       97.04317       94.03290
H         70.35110       97.45790       94.63059
H         69.42790       96.20058       94.48813

Ca 1.0



