%chk=holoCaM.loop1.water2.frame499.chk
%nprocshared=20
%mem=10GB
%nosave
#b3lyp/svp scf=(tight,noincore,xqc) Test 
#IOP(5/87=12) Density=Current Pop=(MK,readradii) iop(6/33=2) iop(6/42=6)

holoCaM.loop1.water2.frame499 

   0  1 
C         78.26339       94.56263       12.20148
C         77.26562       95.46854       11.55169
O         77.15833       95.45944       10.33302
H         79.00444       95.17189       12.75816
H         77.74314       93.87780       12.90352
H         78.79533       93.95489       11.43808
N         76.47780       96.27694       12.31487
C         75.47004       97.14308       11.72774
C         76.12707       98.43964       11.26915
O         76.62607       99.20172       12.08448
C         74.30587       97.35084       12.71497
C         73.10262       98.03480       12.12500
O         73.08262       98.41296       10.96452
O         72.01057       98.19622       12.89054
H         76.56766       96.23345       13.34187
H         75.01675       96.59826       10.86646
H         74.65526       97.91337       13.60633
H         73.95889       96.34721       13.04732
N         76.18947       98.70779        9.94121
C         76.84294       99.85481        9.31555
C         76.26001      101.18885        9.76318
O         77.01763      102.06598       10.15250
C         76.70570       99.68571        7.77783
C         77.42431      100.71309        6.89443
C         78.93180      100.75974        7.16447
C         79.65988      101.58877        6.10198
N         81.08257      101.69870        6.42009
H         75.78691       97.99716        9.32089
H         77.92286       99.82464        9.57349
H         75.62985       99.69057        7.49680
H         77.11818       98.68807        7.50895
H         76.98393      101.72534        7.02387
H         77.25338      100.39534        5.84103
H         79.35102       99.72952        7.14795
H         79.10434      101.20540        8.16695
H         79.21816      102.60752        6.04216
H         79.53933      101.09368        5.11132
H         81.51145      100.74844        6.50597
H         81.56582      102.22271        5.65570
H         81.20313      102.22140        7.31819
N         74.91918      101.40831        9.70825
C         74.27510      102.70146        9.97789
C         73.42111      102.71632       11.24839
O         72.87663      103.76571       11.56505
C         73.45541      103.14660        8.73738
C         72.36234      102.18497        8.33643
O         71.64460      102.43287        7.38165
O         72.18734      101.04841        9.02966
H         74.34768      100.60052        9.43974
H         75.05096      103.48020       10.14690
H         74.14844      103.25722        7.87653
H         73.00025      104.14108        8.94016
N         73.31010      101.63134       12.06241
C         72.63674      101.66452       13.35122
C         71.14041      101.87673       13.28436
O         70.64848      102.78871       13.93442
H         73.79472      100.76027       11.81252
H         73.10558      102.44439       13.99223
H         72.79575      100.68797       13.85676
N         70.34601      101.00748       12.59734
C         68.88787      100.97499       12.72801
C         68.45863       99.62742       13.29598
O         67.35321       99.18010       13.02071
C         68.18140      101.34636       11.40184
C         68.47109      100.46115       10.22518
O         68.09481      100.80761        9.11700
O         69.22882       99.36136       10.33810
H         70.80145      100.27674       12.03337
H         68.54714      101.74109       13.45811
H         68.52548      102.36887       11.13172
H         67.08058      101.38544       11.54579
N         69.29052       98.93260       14.13282
C         68.95050       97.65023       14.72714
C         68.80594       96.51183       13.73077
O         68.41614       95.43587       14.15933
H         70.19822       99.34044       14.39896
H         67.99887       97.77087       15.28885
H         69.74050       97.35998       15.45331
N         69.07081       96.66401       12.39927
C         68.79259       95.64065       11.39867
C         70.03209       95.30878       10.57896
O         70.68708       96.20717       10.07070
C         67.65331       96.15417       10.48590
C         67.27522       95.15583        9.38139
O         66.51577       96.46144       11.25476
H         69.42095       97.56460       12.05339
H         68.41517       94.70844       11.87382
H         67.98600       97.09000        9.99573
H         66.23201       95.63124       11.72161
H         68.13757       94.96485        8.70851
H         66.94383       94.19222        9.82372
H         66.44929       95.57320        8.76830
N         70.32325       94.00200       10.31950
C         71.38572       93.53946        9.43468
C         70.74808       93.02167        8.14369
O         69.85001       92.19448        8.18473
C         72.26990       92.48681       10.17916
C         73.17768       93.23509       11.19813
C         73.11927       91.64950        9.20331
C         74.08138       92.33223       12.04104
H         69.69761       93.27869       10.70562
H         72.05627       94.37333        9.13878
H         71.60638       91.76691       10.70772
H         72.54029       93.82016       11.89473
H         73.83356       93.95041       10.65098
H         72.47010       91.09950        8.49077
H         73.82078       92.28885        8.63958
H         73.69092       90.86707        9.74059
H         73.47290       91.61416       12.62794
H         74.80944       91.77985       11.41234
H         74.67287       92.96041       12.74112
N         71.23699       93.46413        6.94783
C         70.78637       93.05465        5.62170
C         71.78454       92.04985        5.06412
O         72.67937       91.65503        5.78386
C         70.70761       94.30023        4.68246
C         69.79237       95.41108        5.21493
O         71.99209       94.80503        4.39087
H         72.05809       94.06872        6.96853
H         69.78790       92.57052        5.67651
H         70.26732       93.98636        3.71359
H         72.28581       95.38958        5.13389
H         70.17471       95.80661        6.17845
H         69.76261       96.24851        4.48367
H         68.76208       95.02832        5.36179
N         71.71078       91.60374        3.77949
C         72.72808       90.72753        3.19324
C         74.11987       91.35804        3.23843
O         75.03099       90.70435        3.73013
C         72.36706       90.32546        1.73991
C         71.18883       89.33536        1.70464
O         72.13744       91.45394        0.92721
H         70.92503       91.92053        3.19853
H         72.78068       89.78157        3.77865
H         73.22551       89.76791        1.30474
H         71.17088       91.68149        0.95888
H         71.45510       88.41822        2.27479
H         70.27288       89.77500        2.15069
H         70.97708       89.03738        0.65628
N         74.36959       92.60635        2.74763
C         75.71095       93.19901        2.71015
C         76.33795       93.26769        4.09434
O         77.43721       92.76747        4.28292
C         75.66062       94.61230        2.08448
C         77.07043       95.16682        1.80651
C         77.00650       96.51870        1.08490
C         78.40626       96.98507        0.65777
N         78.33075       98.22257       -0.11851
H         73.57587       93.14823        2.37045
H         76.34679       92.56508        2.05152
H         75.09073       95.31036        2.73792
H         75.12999       94.54029        1.11019
H         77.59904       94.44211        1.14898
H         77.64804       95.27529        2.75091
H         76.53674       97.27985        1.74676
H         76.38404       96.40651        0.17121
H         78.87751       96.19837        0.02662
H         79.04562       97.14295        1.55473
H         77.74964       98.07125       -0.97556
H         77.91467       98.98823        0.45906
H         79.29404       98.50131       -0.41481
N         75.66449       93.86768        5.11126
C         76.16338       93.99603        6.48215
C         76.53797       92.62630        7.04141
O         77.61413       92.48799        7.60554
C         75.09063       94.69542        7.36016
C         74.80199       96.14327        6.88425
C         73.63418       96.79552        7.58455
O         73.77494       97.97913        8.19967
O         72.52240       96.30718        7.51870
H         74.72030       94.21484        4.89279
H         77.07470       94.63414        6.50111
H         75.41871       94.72691        8.42132
H         74.17285       94.08881        7.30641
H         74.55313       96.15857        5.80680
H         75.71791       96.75477        7.02218
N         75.72431       91.55440        6.84450
C         76.01548       90.20269        7.27683
H         76.96273       90.13434        7.84897
H         75.18495       89.83217        7.91298
H         76.09070       89.54248        6.38549
H         74.86580       91.69485        6.31444
Ca        70.75454       99.37092        8.74220
O         68.68157       97.66318        7.38094
H         68.12217       98.25891        7.93810
H         68.67067       98.08486        6.48590
O         71.26226       99.22889        5.76989
H         70.51066       99.47375        5.17392
H         71.68016      100.09391        6.00840

Ca 1.0



