%chk=holoCaM.loop1.water2.frame331.chk
%nprocshared=20
%mem=10GB
%nosave
#b3lyp/svp scf=(tight,noincore,xqc) Test 
#IOP(5/87=12) Density=Current Pop=(MK,readradii) iop(6/33=2) iop(6/42=6)

holoCaM.loop1.water2.frame331 

   0  1 
C         -5.06668       47.25193      -13.53184
C         -5.21889       46.97980      -14.99626
O         -4.95140       47.85838      -15.80383
H         -6.04407       47.11040      -13.02527
H         -4.32665       46.54431      -13.10129
H         -4.71411       48.29019      -13.35796
N         -5.63497       45.75351      -15.41117
C         -5.76705       45.39733      -16.81590
C         -6.83669       46.25903      -17.49664
O         -8.01162       46.15625      -17.17532
C         -6.04865       43.89158      -16.92330
C         -6.19931       43.43064      -18.32879
O         -5.29839       43.57134      -19.14007
O         -7.34154       42.82875      -18.68446
H         -5.82476       45.03806      -14.69088
H         -4.78019       45.57457      -17.30080
H         -6.97748       43.64488      -16.36372
H         -5.20602       43.32983      -16.46266
N         -6.44579       47.18740      -18.41269
C         -7.30919       48.16964      -19.06888
C         -8.26210       47.55197      -20.09444
O         -9.44863       47.84116      -20.04960
C         -6.40395       49.22476      -19.77251
C         -7.13417       50.41336      -20.43043
C         -7.94713       51.29490      -19.46116
C         -7.12546       52.00269      -18.36322
N         -6.20531       53.00388      -18.90854
H         -5.43486       47.26381      -18.57322
H         -7.88139       48.70650      -18.28331
H         -5.82023       48.72329      -20.57063
H         -5.67532       49.62508      -19.03614
H         -7.81855       50.02044      -21.21160
H         -6.38199       51.04264      -20.95227
H         -8.72387       50.66933      -18.97744
H         -8.47891       52.07154      -20.05199
H         -6.56789       51.26657      -17.74624
H         -7.84018       52.52097      -17.68663
H         -5.71862       53.48398      -18.11688
H         -5.48260       52.56002      -19.51738
H         -6.73887       53.72180      -19.45139
N         -7.78361       46.75518      -21.09253
C         -8.54986       46.31931      -22.27180
C         -8.82265       44.81225      -22.31644
O         -9.33252       44.34500      -23.32616
C         -7.83719       46.81193      -23.56193
C         -6.37709       46.48406      -23.54101
O         -5.55820       47.39056      -23.53660
O         -5.96931       45.23373      -23.27813
H         -6.79326       46.48516      -21.03367
H         -9.56036       46.78192      -22.28573
H         -7.93094       47.91965      -23.61525
H         -8.31975       46.39349      -24.47012
N         -8.65842       44.01822      -21.22481
C         -9.14824       42.64469      -21.16238
C         -8.29805       41.62305      -21.88666
O         -8.84004       40.84742      -22.66078
H         -8.31708       44.44257      -20.35165
H        -10.20775       42.60171      -21.49964
H         -9.16576       42.32711      -20.10356
N         -6.96530       41.51980      -21.62439
C         -6.11172       40.43508      -22.10827
C         -5.33056       39.75788      -20.96927
O         -4.52717       38.88309      -21.26518
C         -5.18363       40.92780      -23.24130
C         -4.46628       42.21942      -22.98088
O         -3.71281       42.39373      -21.88779
O         -4.54857       43.12242      -23.79434
H         -6.52934       42.24410      -21.03789
H         -6.71852       39.62448      -22.56997
H         -5.80210       41.07613      -24.15412
H         -4.44552       40.13237      -23.48033
N         -5.53275       40.05712      -19.64902
C         -4.81894       39.40463      -18.55631
C         -3.34943       39.78667      -18.43941
O         -2.69615       39.26709      -17.54821
H         -6.26492       40.72479      -19.38508
H         -4.91961       38.30162      -18.66013
H         -5.29599       39.69467      -17.59432
N         -2.76488       40.68568      -19.28348
C         -1.36345       41.09898      -19.20990
C         -1.24671       42.61363      -19.04493
O         -2.24172       43.31831      -19.09587
C         -0.59488       40.60991      -20.46421
C         -0.39915       39.08704      -20.46127
O         -1.22647       41.02964      -21.64723
H         -3.33457       41.10363      -20.01668
H         -0.87799       40.65513      -18.31377
H          0.42951       41.03849      -20.46004
H         -1.98882       40.41786      -21.82848
H         -1.37348       38.55513      -20.44956
H          0.16516       38.78391      -21.36902
H          0.18801       38.78543      -19.56789
N         -0.02288       43.15622      -18.76193
C          0.21631       44.56306      -18.44007
C          1.33153       45.12130      -19.33060
O          2.36821       44.49198      -19.46919
C          0.59775       44.66622      -16.93011
C         -0.52544       44.12338      -15.99691
C          0.98404       46.09874      -16.51468
C         -1.84920       44.90478      -16.02764
H          0.77997       42.51657      -18.67753
H         -0.69626       45.17608      -18.58656
H          1.49523       44.03015      -16.76201
H         -0.15245       44.13417      -14.94981
H         -0.73889       43.06402      -16.25286
H          1.26338       46.12363      -15.44012
H          1.86310       46.45067      -17.08948
H          0.15143       46.80855      -16.68034
H         -2.57111       44.43099      -15.32926
H         -1.70845       45.95469      -15.69973
H         -2.30748       44.89980      -17.03493
N          1.19872       46.36358      -19.88166
C          2.20676       47.05419      -20.68187
C          2.75073       48.23747      -19.88713
O          2.37427       48.41580      -18.74019
C          1.57500       47.56070      -22.01179
C          0.97901       46.41872      -22.84731
O          0.63118       48.57996      -21.75736
H          0.35716       46.89361      -19.66924
H          3.05402       46.37673      -20.92096
H          2.36645       48.01009      -22.64638
H         -0.28679       48.22628      -21.87021
H          0.57209       46.82172      -23.80013
H          1.75603       45.66237      -23.08257
H          0.15246       45.93629      -22.28947
N          3.63835       49.10468      -20.45199
C          4.10583       50.31535      -19.77779
C          2.94252       51.25830      -19.49665
O          2.82528       51.73100      -18.37564
C          5.19388       51.04243      -20.60579
C          6.44865       50.17499      -20.76837
O          4.69826       51.40589      -21.86864
H          3.96962       48.91170      -21.40622
H          4.58270       50.04142      -18.80933
H          5.48303       51.95626      -20.03267
H          5.24113       52.17672      -22.18020
H          6.23133       49.24972      -21.34075
H          7.23130       50.74437      -21.31153
H          6.85010       49.89176      -19.77181
N          2.04626       51.58374      -20.47176
C          0.91423       52.49046      -20.26090
C         -0.16045       51.92746      -19.31755
O         -1.09166       52.66239      -19.02092
C          0.30466       52.89456      -21.62622
C          1.32575       53.71494      -22.44226
C          0.82265       54.07749      -23.84285
C          1.87601       54.92721      -24.57451
N          1.46070       55.23207      -25.94227
H          2.19205       51.18318      -21.41118
H          1.29535       53.42503      -19.79044
H         -0.59374       53.53259      -21.47289
H         -0.00581       51.98042      -22.17914
H          2.26980       53.14344      -22.56256
H          1.55377       54.64925      -21.88222
H         -0.12872       54.64852      -23.77276
H          0.63964       53.14084      -24.41352
H          2.84394       54.37831      -24.60693
H          2.03458       55.87798      -24.01715
H          0.55709       55.75783      -25.93850
H          2.19545       55.82188      -26.39667
H          1.35586       54.34638      -26.48858
N         -0.08730       50.67349      -18.77387
C         -1.03911       50.14720      -17.78942
C         -0.37604       49.92316      -16.42926
O         -1.09126       49.60573      -15.48847
C         -1.60449       48.79559      -18.27244
C         -2.33135       48.88626      -19.61631
C         -2.66558       47.52275      -20.16724
O         -1.79280       46.74022      -20.49048
O         -3.93587       47.17464      -20.36613
H          0.68427       50.06174      -19.04814
H         -1.86921       50.86968      -17.63125
H         -2.30070       48.36570      -17.51750
H         -0.74785       48.11142      -18.36131
H         -1.70107       49.40203      -20.36787
H         -3.25664       49.48397      -19.47414
N          0.97137       50.04434      -16.24541
C          1.64270       49.83787      -14.97949
H          2.20780       50.75652      -14.71401
H          0.93774       49.60508      -14.15596
H          2.36233       48.99770      -15.08119
H          1.57964       50.27239      -17.03296
Ca        -4.52189       45.38064      -21.57858
O         -0.95563       43.67939      -22.76058
H         -0.45053       44.01128      -23.54341
H         -1.61292       43.05742      -23.15628
O         -2.45282       45.97144      -24.07114
H         -2.89663       46.55927      -23.41059
H         -2.22005       46.57483      -24.82028

Ca 1.0



