%chk=holoCaM.loop2.water2.frame164.chk
%nprocshared=20
%mem=10GB
%nosave
#b3lyp/svp scf=(tight,noincore,xqc) Test 
#IOP(5/87=12) Density=Current Pop=(MK,readradii) iop(6/33=2) iop(6/42=6)

holoCaM.loop2.water2.frame164 

   -2  1 
C        109.14528       73.22377       79.07750
C        110.18175       72.67205       80.01333
O        110.07269       72.86125       81.21619
H        108.35546       73.77189       79.63326
H        109.62470       73.91654       78.35437
H        108.67075       72.39019       78.51633
N        111.21934       71.94919       79.51271
C        112.24663       71.33083       80.34312
C        113.07621       72.36449       81.08220
O        113.66097       73.22634       80.44088
C        113.14322       70.43116       79.47044
C        114.28349       69.77608       80.21071
O        115.41811       69.91353       79.78190
O        114.09970       69.04174       81.33090
H        111.24959       71.79999       78.49128
H        111.73374       70.67827       81.06509
H        113.56437       71.02824       78.63035
H        112.50993       69.63492       79.02990
N        113.19821       72.30142       82.44295
C        113.99027       73.24005       83.22791
C        115.15996       72.58180       83.96273
O        115.93282       73.32325       84.55440
C        113.06814       73.92364       84.24540
H        112.70143       71.55708       82.95085
H        114.42272       74.01924       82.56431
H        112.63877       73.16826       84.94133
H        113.62339       74.67769       84.84228
H        112.23098       74.43367       83.72338
N        115.34010       71.22495       84.02580
C        116.40341       70.60316       84.82794
C        117.16237       69.47692       84.11744
O        118.06612       68.91957       84.72547
C        115.80410       70.10149       86.16115
C        114.75226       69.02995       86.03798
O        114.16668       68.55078       87.15108
O        114.41992       68.58856       84.95178
H        114.63586       70.61500       83.59308
H        117.16336       71.36654       85.10391
H        115.34919       70.97046       86.68379
H        116.62259       69.71138       86.80384
N        116.86189       69.07796       82.85128
C        117.54612       67.99783       82.15763
C        117.38466       66.65636       82.84398
O        118.39322       66.05682       83.18890
H        116.13686       69.57648       82.33340
H        118.62518       68.25063       82.06351
H        117.13105       67.90493       81.13014
N        116.14913       66.10800       83.04569
C        115.94423       64.77977       83.63341
C        115.22422       63.83141       82.66740
O        114.88586       62.72437       83.06312
C        115.22095       64.89866       84.99151
C        113.74633       65.20683       84.90522
N        112.84633       64.37037       85.47291
O        113.35671       66.21343       84.33699
H        115.32135       66.65033       82.75598
H        116.92624       64.31536       83.87199
H        115.73414       65.67270       85.60321
H        115.34218       63.93168       85.52786
H        113.14738       63.51651       85.96521
H        111.84118       64.58133       85.43412
N        115.00818       64.18372       81.36633
C        114.39078       63.33062       80.36341
C        112.87706       63.21466       80.43235
O        112.33434       62.61588       79.51412
H        115.39352       65.07139       81.02097
H        114.86893       62.32671       80.36473
H        114.59917       63.78979       79.37206
N        112.11802       63.73357       81.44523
C        110.65398       63.62961       81.46631
C        109.99023       64.97633       81.75423
O        110.67253       65.96110       81.99903
C        110.21724       62.57474       82.51822
C        110.70702       61.17360       82.14879
O        110.69868       62.90990       83.79193
H        112.58270       64.17613       82.25045
H        110.26845       63.28938       80.47986
H        109.10781       62.48684       82.54876
H        110.06092       63.56720       84.17524
H        110.34405       60.44002       82.89962
H        110.30393       60.88069       81.15479
H        111.81513       61.13033       82.11874
N        108.62738       65.04995       81.80143
C        107.86619       66.20846       82.25169
C        107.50589       65.98894       83.70903
O        106.97544       64.94433       84.06155
C        106.61489       66.45282       81.33289
C        107.06429       67.24610       80.07462
C        105.48096       67.20148       82.06708
C        105.94344       67.59046       79.08916
H        108.08845       64.18798       81.63397
H        108.48707       67.12674       82.23531
H        106.17551       65.47310       81.04342
H        107.83924       66.66179       79.53510
H        107.51509       68.21162       80.39707
H        104.58100       67.30806       81.43020
H        105.13533       66.63134       82.95437
H        105.81525       68.19772       82.38564
H        105.19079       68.26506       79.54886
H        106.37247       68.14124       78.22539
H        105.44694       66.66944       78.72320
N        107.72180       66.99993       84.59896
C        107.38263       66.94646       86.01278
C        106.12456       67.76997       86.24443
O        105.55673       68.25885       85.28019
C        108.57367       67.47167       86.84626
C        109.83779       66.69189       86.60003
O        110.35200       66.68413       85.49268
O        110.42900       66.02606       87.61028
H        108.08396       67.89864       84.24623
H        107.15446       65.90379       86.32634
H        108.32638       67.40660       87.92631
H        108.76779       68.53888       86.60002
N        105.59139       67.92752       87.48751
C        104.32901       68.62637       87.71683
C        104.33435       70.08587       87.24688
O        103.47138       70.40316       86.43922
C        103.88858       68.51088       89.19152
C        102.59655       69.25933       89.43985
C        101.42435       68.93056       88.73294
C        102.56270       70.31549       90.36637
C        100.24714       69.65404       88.94323
C        101.38131       71.03195       90.57729
C        100.22555       70.70394       89.86426
H        106.07035       67.49190       88.29028
H        103.55149       68.09475       87.12306
H        104.68723       68.89716       89.85389
H        103.74753       67.43832       89.44702
H        101.42067       68.12421       88.01104
H        103.45135       70.59010       90.92083
H         99.35227       69.40284       88.38849
H        101.36389       71.84564       91.29035
H         99.31369       71.26416       90.02435
N        105.21523       71.04509       87.68210
C        105.12709       72.44892       87.28523
C        105.50452       72.70016       85.83183
O        105.46588       73.85110       85.41810
C        106.06867       73.15293       88.26391
C        107.14103       72.10696       88.46806
C        106.30962       70.83187       88.60590
H        104.10068       72.84906       87.44468
H        106.41469       74.16181       87.95099
H        105.53849       73.25773       89.23860
H        107.72965       72.04819       87.52356
H        107.83706       72.29577       89.31205
H        106.94971       69.96484       88.34358
H        105.89857       70.73604       89.63193
N        105.82472       71.68439       84.98561
C        106.04835       71.86607       83.56446
C        104.74385       71.58366       82.84186
O        104.27028       72.44048       82.10920
C        107.15853       70.92335       83.07706
C        108.48081       71.08006       83.84545
C        109.53992       70.16134       83.29953
O        109.33008       69.48425       82.30659
O        110.75112       70.10234       83.87382
H        105.82314       70.71934       85.32807
H        106.36746       72.90913       83.34076
H        107.32388       71.10566       81.99152
H        106.83622       69.87730       83.21868
H        108.31739       70.82967       84.91567
H        108.84543       72.12667       83.77241
N        104.07964       70.41091       83.04387
C        102.80573       70.11349       82.43004
H        102.05577       70.87754       82.72633
H        102.90953       70.09164       81.32599
H        102.44655       69.11950       82.77609
H        104.47183       69.70929       83.68150
Ca       112.27297       68.98683       82.64402
O        110.73646       67.95362       79.94141
H        110.85049       67.73158       78.98389
H        109.87926       68.44336       79.98061
O        113.24609       66.51894       80.59010
H        114.11482       66.78373       80.19741
H        112.77809       66.05843       79.85093

Ca 1.0



