%chk=holoCaM.loop4.water3.frame169.chk
%nprocshared=20
%mem=10GB
%nosave
#b3lyp/svp scf=(tight,noincore,xqc) Test 
#IOP(5/87=12) Density=Current Pop=(MK,readradii) iop(6/33=2) iop(6/42=6)

holoCaM.loop4.water3.frame169 

   -3  1 
C         21.31622      105.23968       -0.96971
C         21.84873      105.11613        0.42421
O         22.91686      104.54026        0.57843
H         20.37561      105.82504       -0.99616
H         22.07582      105.76304       -1.59128
H         21.13854      104.23177       -1.39969
N         21.17558      105.63278        1.49810
C         21.77276      105.63257        2.82692
C         20.75320      105.83172        3.95324
O         19.97490      106.77386        3.92174
C         22.84068      106.74403        2.89857
C         23.70581      106.61775        4.11697
O         23.61292      105.53200        4.90197
O         24.54296      107.46960        4.36445
H         20.25814      106.08040        1.35393
H         22.26953      104.64907        2.97526
H         22.33023      107.73179        2.89124
H         23.52181      106.69704        2.02368
N         20.78943      104.99576        5.03060
C         19.94884      105.07197        6.22139
C         20.79690      105.41123        7.46349
O         20.38013      106.27869        8.21796
C         19.18413      103.71032        6.37464
C         18.11359      103.59133        5.25145
C         18.52177      103.56250        7.76057
C         17.41723      102.22715        5.17636
H         21.48681      104.24455        5.02014
H         19.18141      105.87447        6.13309
H         19.92145      102.88148        6.28000
H         18.58556      103.77147        4.26625
H         17.34049      104.37882        5.39086
H         19.28374      103.60241        8.56617
H         17.77138      104.36227        7.92965
H         18.03176      102.57380        7.86768
H         16.84009      102.00457        6.09583
H         16.69684      102.22959        4.33031
H         18.15908      101.41989        5.00271
N         21.94514      104.73575        7.77420
C         22.63104      104.81938        9.07896
C         24.07545      105.36390        9.05575
O         24.67860      105.40212       10.11988
C         22.59374      103.41235        9.73615
C         23.10225      102.36709        8.78730
O         24.28331      102.54758        8.18121
O         22.35165      101.49026        8.38852
H         22.29860      104.05935        7.08680
H         22.08458      105.50440        9.76317
H         21.53777      103.16544        9.98402
H         23.17386      103.39997       10.68246
N         24.67852      105.86198        7.93984
C         25.99750      106.50220        7.95127
C         27.20276      105.58725        8.17051
O         28.30189      106.11686        8.25649
H         24.13894      105.89957        7.07657
H         25.99584      107.28724        8.73957
H         26.15699      107.02475        6.98459
N         27.09859      104.23313        8.28959
C         28.23072      103.36496        8.62888
C         29.34175      103.28842        7.57704
O         30.42777      102.85429        7.93468
C         27.75600      101.94007        9.00750
C         27.05569      101.17503        7.91430
O         26.83051      101.67730        6.82639
O         26.64906       99.91546        8.15602
H         26.16956      103.82113        8.22367
H         28.68649      103.79412        9.54920
H         27.05377      102.01101        9.86583
H         28.63523      101.34453        9.33375
N         29.15094      103.64106        6.27361
C         30.21111      103.62325        5.26669
C         29.98746      102.61447        4.15023
O         30.74197      102.65001        3.18766
H         28.21731      103.94206        5.97428
H         31.20582      103.40667        5.71253
H         30.26203      104.64124        4.82536
N         29.01423      101.66348        4.21740
C         28.75092      100.66489        3.18172
C         27.30390      100.75854        2.72724
O         26.56119      101.57464        3.25914
C         29.01184       99.25680        3.76041
C         30.49720       99.00115        4.04143
C         30.67586       97.63733        4.65935
N         31.35014       96.65930        4.01042
O         30.19619       97.41096        5.76049
H         28.43201      101.61650        5.06045
H         29.39686      100.81993        2.28875
H         28.68978       98.47478        3.04026
H         28.41139       99.13377        4.68961
H         30.91306       99.76449        4.73259
H         31.05082       99.06498        3.07825
H         31.75068       96.82006        3.07501
H         31.45872       95.72847        4.44046
N         26.82300       99.91741        1.76383
C         25.42695       99.89340        1.35163
C         24.78589       98.59813        1.83015
O         25.08780       97.52565        1.32452
C         25.29280      100.13333       -0.18266
C         23.89744       99.77980       -0.72897
C         25.58715      101.60818       -0.50805
H         27.45938       99.22918        1.33233
H         24.87262      100.71432        1.84708
H         26.02050       99.48350       -0.71742
H         23.68417       98.69874       -0.59294
H         23.10935      100.37185       -0.22450
H         23.85211       99.97836       -1.82161
H         24.83387      102.26360       -0.01535
H         26.59669      101.90366       -0.15649
H         25.52796      101.78712       -1.60279
N         23.85239       98.66848        2.82110
C         23.01509       97.56925        3.29112
C         22.11857       97.09122        2.16548
O         21.67183       97.89441        1.36395
C         22.17943       98.07614        4.49895
C         21.02944       97.21806        4.95546
N         21.20639       95.93407        5.33091
O         19.91144       97.71022        5.00741
H         23.69953       99.59078        3.25247
H         23.64313       96.72400        3.64985
H         21.76010       99.06769        4.25361
H         22.86246       98.19964        5.35661
H         22.13817       95.49899        5.30534
H         20.39828       95.37507        5.64332
N         21.80557       95.77084        2.06610
C         20.95278       95.20479        1.02304
C         19.51446       95.74778        0.99584
O         18.81047       95.41150        0.05334
C         20.92018       93.65387        1.09550
C         20.22458       93.10556        2.32870
C         18.89979       92.64531        2.23125
C         20.87615       93.02933        3.57546
C         18.23494       92.14990        3.35668
C         20.20984       92.53411        4.69753
C         18.88773       92.09838        4.59573
O         18.25890       91.62846        5.69121
H         22.24510       95.14681        2.74579
H         21.42114       95.47645        0.05027
H         21.94007       93.21979        1.01140
H         20.37168       93.30773        0.19144
H         18.37426       92.68185        1.28535
H         21.90339       93.33120        3.69973
H         17.21183       91.80985        3.26422
H         20.72650       92.48824        5.64836
H         17.34297       91.31810        5.66459
N         19.01323       96.59814        1.94281
C         17.68072       97.20492        1.85713
C         17.77706       98.67495        1.47132
O         16.82727       99.19094        0.89861
C         16.88689       97.03987        3.16474
C         16.64354       95.56853        3.51762
C         15.83062       95.45497        4.77585
O         16.30461       95.95013        5.93544
O         14.73767       94.91153        4.75458
H         19.60971       96.86800        2.72743
H         17.10377       96.72232        1.03782
H         15.89969       97.54067        3.04866
H         17.43336       97.54095        3.99379
H         17.61071       95.04495        3.66920
H         16.09994       95.07926        2.67941
N         18.91924       99.38960        1.67428
C         19.15877      100.71337        1.10875
C         19.11989      100.60135       -0.39880
O         18.38375      101.33921       -1.03815
C         20.54697      101.23801        1.53379
C         20.61308      101.47313        3.04226
C         21.98014      101.83464        3.52858
O         22.15363      101.93705        4.85076
O         22.92099      101.99785        2.77004
H         19.68017       98.95438        2.20390
H         18.39088      101.43895        1.46142
H         20.77203      102.19850        1.01989
H         21.31939      100.49456        1.24810
H         20.30742      100.55964        3.58315
H         19.90933      102.27454        3.32484
N         19.86948       99.65491       -1.02941
C         19.85106       99.47191       -2.46035
H         20.23981      100.38248       -2.96017
H         20.49392       98.60743       -2.73369
H         18.81498       99.26292       -2.80137
H         20.45434       99.01648       -0.47342
Ca        24.03065      102.38447        5.97016
O         24.50571       99.76724        6.01984
H         25.36828       99.31139        5.86459
H         24.28309       99.60163        6.97056
O         25.55867      103.90875        2.05784
H         25.75298      104.86690        1.90683
H         24.67336      103.90257        2.49919
O         26.41461      104.84691        4.58662
H         26.16894      105.38222        5.37878
H         27.18550      105.32925        4.19645

Ca 1.0



