%chk=holoCaM-CaMKII.loop1.water2.frame484.chk
%nprocshared=20
%mem=10GB
%nosave
#b3lyp/svp scf=(tight,noincore,xqc) Test 
#IOP(5/87=12) Density=Current Pop=(MK,readradii) iop(6/33=2) iop(6/42=6)

holoCaM-CaMKII.loop1.water2.frame484 

   0  1 
C         79.70313       97.92169       81.34189
C         79.51021       99.37100       81.67125
O         78.71231      100.02352       81.01822
H         80.45337       97.45062       82.01215
H         78.73859       97.38623       81.46465
H         80.05132       97.82206       80.29343
N         80.20045       99.94058       82.69434
C         80.03221      101.33095       83.09632
C         80.45392      102.27781       81.97243
O         81.62955      102.33456       81.64074
C         80.82403      101.54835       84.40097
C         80.82860      102.95353       84.88289
O         82.00407      103.55153       85.12431
O         79.78765      103.54805       85.08612
H         80.84833       99.34256       83.23162
H         78.95590      101.49774       83.32909
H         81.88176      101.23526       84.25920
H         80.37671      100.90616       85.19148
N         79.51158      103.02305       81.31842
C         79.78891      103.84089       80.14006
C         80.15629      105.28538       80.46602
O         80.54004      105.98513       79.53831
C         78.56265      103.85694       79.18630
C         78.07455      102.47295       78.71862
C         79.16970      101.67702       77.99846
C         78.63521      100.35014       77.45002
N         79.70789       99.59400       76.80434
H         78.53155      102.84821       81.55722
H         80.65284      103.40181       79.59852
H         78.81454      104.45349       78.28188
H         77.70970      104.36110       79.69517
H         77.22077      102.63434       78.02369
H         77.69253      101.88841       79.58068
H         79.99163      101.45309       78.71023
H         79.57088      102.28140       77.15594
H         77.82851      100.55301       76.71078
H         78.20804       99.74316       78.27888
H         80.12156      100.15134       76.02162
H         80.45232       99.36376       77.50265
H         79.31871       98.70382       76.41911
N         80.03767      105.82334       81.71698
C         80.36862      107.22383       82.01300
C         81.46049      107.36671       83.06826
O         81.80365      108.49357       83.39946
C         79.09959      108.01827       82.39974
C         78.40702      107.57878       83.66037
O         77.41510      108.18207       84.03617
O         78.86313      106.54371       84.38671
H         79.67379      105.23200       82.47693
H         80.76249      107.72709       81.10352
H         78.37349      107.95759       81.56047
H         79.37959      109.08801       82.52425
N         82.07937      106.28608       83.61831
C         83.13992      106.39632       84.60487
C         82.65246      106.97446       85.91552
O         83.24898      107.92561       86.39860
H         81.82494      105.33857       83.30835
H         83.98508      106.98882       84.19176
H         83.53873      105.38424       84.81705
N         81.58811      106.41752       86.56301
C         81.13207      106.81729       87.89352
C         81.20683      105.65175       88.88432
O         80.78520      105.82141       90.01981
C         79.72729      107.46079       87.82389
C         78.59752      106.59278       87.33991
O         77.49292      107.08941       87.19416
O         78.78821      105.30399       87.00962
H         81.08615      105.65217       86.09578
H         81.79223      107.61443       88.30117
H         79.79899      108.33241       87.13584
H         79.45658      107.84820       88.82973
N         81.80343      104.46659       88.55148
C         82.01727      103.37520       89.48978
C         80.79998      102.52167       89.78179
O         80.96408      101.56399       90.52738
H         82.23936      104.35652       87.62705
H         82.45757      103.77322       90.43033
H         82.76601      102.68471       89.04425
N         79.56777      102.76330       89.24645
C         78.40706      101.90527       89.49309
C         77.80181      101.40345       88.18623
O         78.24565      101.81155       87.11912
C         77.35344      102.65788       90.34187
C         77.90238      103.05094       91.72298
O         76.85849      103.78308       89.66042
H         79.43816      103.58680       88.64577
H         78.71230      101.00287       90.06863
H         76.49567      101.97805       90.53130
H         77.55559      104.48950       89.67821
H         77.10756      103.55054       92.31584
H         78.23714      102.14591       92.27360
H         78.76223      103.74793       91.62834
N         76.80218      100.47412       88.20057
C         76.16839       99.92413       87.00159
C         74.65543      100.07915       87.12009
O         74.10100       99.67904       88.13771
C         76.54924       98.42467       86.81482
C         78.09293       98.25067       86.82450
C         75.94680       97.89753       85.49154
C         78.55619       96.79804       86.69046
H         76.49989      100.09799       89.11441
H         76.53113      100.45320       86.09078
H         76.12949       97.83684       87.66163
H         78.48939       98.61905       87.79479
H         78.55358       98.85235       86.01034
H         76.36784       98.45240       84.62414
H         76.14498       96.81671       85.35481
H         74.84416       98.01182       85.47922
H         78.29051       96.37647       85.70030
H         79.66202       96.75518       86.78124
H         78.10950       96.17375       87.49309
N         73.91609      100.59598       86.09770
C         72.46180      100.76350       86.14466
C         71.77261       99.83192       85.16115
O         72.44332       99.09945       84.45169
C         72.08132      102.23666       85.82876
C         72.70158      103.22429       86.81952
O         72.41727      102.57673       84.50589
H         74.40519      100.85425       85.22964
H         72.07348      100.50961       87.15557
H         70.98268      102.36123       85.92093
H         73.38862      102.76299       84.47119
H         72.35772      103.00138       87.85038
H         73.80845      103.15783       86.78335
H         72.39430      104.25852       86.55278
N         70.41565       99.81836       85.05890
C         69.68137       99.04246       84.05908
C         70.08583       99.47515       82.65751
O         70.39345       98.62514       81.83500
C         68.14958       99.20893       84.23824
C         67.67033       98.57749       85.55260
O         67.79723      100.56920       84.19958
H         69.88012      100.42175       85.70155
H         69.90717       97.95724       84.17184
H         67.64839       98.66932       83.40049
H         66.80945      100.61162       84.11164
H         68.13659       99.06633       86.43238
H         66.56766       98.67713       85.63838
H         67.92114       97.49524       85.56711
N         70.14394      100.79961       82.34197
C         70.52164      101.32365       81.03136
C         71.85652      100.75655       80.57861
O         71.94043      100.21917       79.48283
C         70.59880      102.86922       81.12114
C         70.84841      103.56604       79.77473
C         70.94972      105.08811       79.98140
C         71.04338      105.88870       78.67180
N         72.22932      105.55122       77.88415
H         69.93222      101.47600       83.09123
H         69.73643      101.04871       80.29245
H         71.40074      103.15427       81.83818
H         69.63297      103.24901       81.52192
H         70.00232      103.33481       79.09192
H         71.79203      103.19226       79.32490
H         71.83216      105.31553       80.62005
H         70.03950      105.44163       80.51378
H         71.08184      106.96980       78.93469
H         70.12874      105.71912       78.06196
H         73.09467      105.68005       78.45676
H         72.17014      104.56845       77.53509
H         72.27429      106.18785       77.05565
N         72.94521      100.85619       81.38569
C         74.28584      100.41690       81.00964
C         74.29351       98.91785       80.75011
O         74.57824       98.51481       79.63054
C         75.30561      100.86567       82.09311
C         75.31962      102.41365       82.17269
C         76.18433      103.01580       83.24421
O         77.00871      103.85909       82.93752
O         75.98659      102.76666       84.55227
H         72.80189      101.28336       82.31043
H         74.57706      100.92819       80.06370
H         76.32178      100.50595       81.83203
H         75.02381      100.42494       83.07118
H         74.30629      102.80658       82.36282
H         75.63908      102.81043       81.18354
N         73.94293       98.03355       81.72074
C         73.83767       96.61011       81.47895
H         73.07520       96.41694       80.69288
H         74.81634       96.19813       81.15736
H         73.51528       96.09106       82.40754
H         73.71867       98.38157       82.65606
Ca        77.23141      104.16789       85.82061
O         75.04702      105.83510       84.42844
H         74.63943      106.49492       83.81411
H         75.72796      106.35002       84.92922
O         74.90100      105.32427       87.48421
H         74.63401      106.27636       87.47907
H         75.76962      105.30964       87.95423

Ca 1.0



