%chk=holoCaM-CaMKII.loop1.water2.frame494.chk
%nprocshared=20
%mem=10GB
%nosave
#b3lyp/svp scf=(tight,noincore,xqc) Test 
#IOP(5/87=12) Density=Current Pop=(MK,readradii) iop(6/33=2) iop(6/42=6)

holoCaM-CaMKII.loop1.water2.frame494 

   0  1 
C         89.10545       90.64978      100.02474
C         88.70704       91.19229      101.36050
O         87.98984       92.18240      101.40119
H         89.75553       89.75637      100.12950
H         88.19356       90.36522       99.45963
H         89.65825       91.43138       99.46290
N         89.12635       90.59127      102.50933
C         88.74439       91.09272      103.81841
C         89.33175       92.48386      104.01454
O         90.52672       92.63728      103.79594
C         89.23685       90.15878      104.94193
C         88.54494       90.50616      106.22542
O         87.47226       91.32139      106.19530
O         88.89957       89.99810      107.27151
H         89.71373       89.74512      102.44810
H         87.63114       91.10737      103.84438
H         90.34025       90.25460      105.04803
H         88.99726       89.09649      104.72433
N         88.55714       93.54437      104.39372
C         89.03596       94.92338      104.33400
C         89.23370       95.59100      105.69339
O         89.81989       96.66446      105.71236
C         88.05729       95.71092      103.43188
C         88.61461       96.99092      102.78238
C         89.84158       96.75581      101.87076
C         89.61037       95.67215      100.79655
N         90.78544       95.51209       99.94352
H         87.57510       93.37492      104.63588
H         90.03704       94.90583      103.86334
H         87.13362       95.93877      104.00817
H         87.72525       95.05420      102.60141
H         88.87306       97.74208      103.55746
H         87.79913       97.42147      102.16036
H         90.72042       96.47256      102.48495
H         90.08667       97.71893      101.37320
H         88.73121       95.94306      100.17101
H         89.41198       94.69178      101.28001
H         90.59917       94.75189       99.24937
H         90.98348       96.40147       99.43181
H         91.61290       95.24018      100.52301
N         88.80640       95.02954      106.86581
C         89.09388       95.60828      108.18518
C         89.87150       94.63156      109.07128
O         90.19167       94.99225      110.19559
C         87.78897       96.12428      108.84342
C         86.78613       95.06250      109.19607
O         85.61296       95.35669      109.35371
O         87.18050       93.79342      109.36689
H         88.25856       94.15888      106.82936
H         89.73976       96.50681      108.07230
H         87.32238       96.81902      108.11039
H         88.00413       96.71335      109.76081
N         90.24378       93.39422      108.62205
C         91.04750       92.46310      109.39075
C         90.33586       91.89863      110.59648
O         90.85287       92.04001      111.69539
H         90.01320       93.09809      107.66427
H         91.99884       92.95757      109.68772
H         91.31053       91.59850      108.74276
N         89.18139       91.18084      110.45492
C         88.54582       90.46393      111.56250
C         88.52498       88.94755      111.33713
O         88.10752       88.24083      112.24513
C         87.13673       91.03240      111.85263
C         86.09857       90.81726      110.78292
O         84.85602       91.30176      110.96422
O         86.35258       90.19978      109.76496
H         88.76221       91.11386      109.51793
H         89.13720       90.62383      112.49002
H         87.23329       92.12487      112.03188
H         86.74886       90.56665      112.78407
N         88.96146       88.37195      110.17399
C         89.02921       86.93691      109.94390
C         88.09249       86.44092      108.85227
O         88.17666       85.26603      108.53303
H         89.29926       88.96161      109.40678
H         88.78786       86.36268      110.86466
H         90.07650       86.68916      109.66563
N         87.12490       87.23489      108.29619
C         86.08775       86.71307      107.39602
C         85.72536       87.71298      106.29998
O         86.19935       88.83265      106.32548
C         84.82367       86.34292      108.21531
C         85.05277       85.15194      109.15547
O         84.34059       87.44917      108.93634
H         87.02391       88.19411      108.63848
H         86.46194       85.80319      106.87824
H         84.02546       86.02047      107.51415
H         84.96812       87.63055      109.68511
H         84.10509       84.90400      109.67742
H         85.37716       84.26505      108.57071
H         85.81958       85.38157      109.92365
N         84.89214       87.33958      105.27494
C         84.53614       88.22214      104.16126
C         83.01354       88.29280      104.03934
O         82.39686       87.27805      103.74952
C         85.15998       87.67503      102.83748
C         86.69038       87.46274      102.98756
C         84.85412       88.62195      101.65760
C         87.32511       86.73755      101.79840
H         84.53985       86.37257      105.25230
H         84.94441       89.24193      104.33566
H         84.70202       86.68189      102.63019
H         86.88975       86.81843      103.86943
H         87.19738       88.43728      103.14907
H         83.76336       88.76149      101.53212
H         85.32344       89.61537      101.82362
H         85.22434       88.20811      100.69927
H         87.25159       87.32859      100.86484
H         88.40244       86.56571      102.00484
H         86.83594       85.75022      101.65065
N         82.33964       89.46137      104.25305
C         80.88373       89.57656      104.10864
C         80.47840       89.61064      102.63309
O         81.33982       89.61453      101.76608
C         80.35240       90.84769      104.83522
C         80.61618       90.79846      106.34189
O         80.94382       91.99655      104.29583
H         82.87729       90.28225      104.55829
H         80.39936       88.70206      104.59730
H         79.24914       90.90110      104.69963
H         80.41337       92.77434      104.61111
H         81.70200       90.79634      106.54448
H         80.17950       91.69574      106.82984
H         80.15032       89.89440      106.78728
N         79.15943       89.67849      102.28399
C         78.68449       89.85289      100.90784
C         79.23149       91.14660      100.32759
O         79.71122       91.15643       99.20372
C         77.13176       89.90439      100.84308
C         76.47789       88.59367      101.28403
O         76.63602       90.95613      101.63562
H         78.46093       89.65288      103.04022
H         79.01491       88.99855      100.27519
H         76.85587       90.06443       99.77133
H         75.90484       91.39513      101.12691
H         76.69812       88.36933      102.34760
H         75.37578       88.67529      101.16876
H         76.83666       87.75422      100.65266
N         79.18133       92.28086      101.07410
C         79.65897       93.59313      100.65075
C         81.14491       93.54387      100.33383
O         81.52995       93.92792       99.23810
C         79.36631       94.61545      101.77927
C         77.84421       94.78874      101.98223
C         77.50320       95.51236      103.28887
C         75.97751       95.61725      103.45293
N         75.61897       96.17781      104.75436
H         78.79444       92.19044      102.02499
H         79.10977       93.92417       99.74044
H         79.80755       95.60977      101.54834
H         79.83532       94.24269      102.71567
H         77.34428       93.80118      102.04141
H         77.41980       95.32702      101.10664
H         77.95992       96.52506      103.30907
H         77.91359       94.91628      104.13450
H         75.52044       94.60523      103.36732
H         75.56211       96.25567      102.64178
H         75.95827       95.54777      105.51778
H         76.03439       97.13005      104.86794
H         74.57736       96.24781      104.81882
N         82.03807       93.07556      101.25121
C         83.48436       93.04685      101.02853
C         83.88645       92.09894       99.90140
O         85.03467       92.15127       99.48174
C         84.23583       92.64717      102.32415
C         83.95196       93.62267      103.48414
C         84.64015       93.22212      104.75626
O         85.43279       94.10194      105.39431
O         84.43580       92.12709      105.25409
H         81.66344       92.75041      102.14720
H         83.79996       94.07613      100.74586
H         85.33139       92.63717      102.13148
H         83.92353       91.61925      102.61493
H         82.87016       93.65707      103.70728
H         84.27558       94.64591      103.19621
N         83.01482       91.19570       99.37148
C         83.37073       90.31279       98.28288
H         83.62145       90.90952       97.38035
H         84.23672       89.67986       98.56821
H         82.51123       89.65099       98.03917
H         82.06890       91.11084       99.75488
Ca        86.48925       92.28006      107.92157
O         83.07149       93.08109      108.11987
H         82.99484       92.74452      109.04787
H         83.75611       93.79393      108.17082
O         83.72033       89.99747      107.87682
H         83.22122       89.25683      107.44785
H         83.34241       90.05247      108.79039

Ca 1.0



