%chk=holoCaM-CaMKII.loop2.water1.frame278.chk
%nprocshared=20
%mem=10GB
%nosave
#b3lyp/svp scf=(tight,noincore,xqc) Test 
#IOP(5/87=12) Density=Current Pop=(MK,readradii) iop(6/33=2) iop(6/42=6)

holoCaM-CaMKII.loop2.water1.frame278 

   -2  1 
C         39.92090       42.14858       73.20721
C         40.61274       42.74669       72.01575
O         41.41197       43.65443       72.19034
H         39.20526       41.35383       72.90586
H         40.66713       41.71147       73.90125
H         39.34978       42.94230       73.73434
N         40.32850       42.30020       70.76072
C         40.89173       42.88393       69.54570
C         40.55142       44.37157       69.49283
O         39.38163       44.72626       69.51167
C         40.36253       42.09860       68.32330
C         40.62746       42.75151       66.99878
O         39.67256       43.08306       66.31507
O         41.85994       43.02837       66.53725
H         39.65025       41.52746       70.66835
H         41.99330       42.76782       69.55658
H         39.25761       42.00827       68.41934
H         40.78969       41.07167       68.33180
N         41.55949       45.29193       69.45226
C         41.38188       46.74061       69.48702
C         41.84327       47.41901       68.19627
O         41.72880       48.63277       68.10035
C         42.18560       47.28768       70.67347
H         42.52408       44.94654       69.41253
H         40.31001       46.99365       69.63080
H         43.26860       47.06604       70.53881
H         42.05900       48.38645       70.76654
H         41.84767       46.80989       71.61743
N         42.36042       46.69858       67.16272
C         42.78679       47.25280       65.87600
C         41.96845       46.66464       64.72732
O         42.24291       47.01225       63.58665
C         44.32344       47.07649       65.67309
C         44.83681       45.66379       65.78566
O         46.03398       45.43039       65.75404
O         43.96114       44.67914       66.00913
H         42.42941       45.68665       67.28598
H         42.60767       48.35023       65.84599
H         44.82809       47.66904       66.46614
H         44.62344       47.50181       64.69032
N         40.89612       45.84104       64.94414
C         40.01864       45.40904       63.87050
C         40.61881       44.39836       62.91700
O         39.98936       44.17281       61.89289
H         40.60972       45.59842       65.90207
H         39.69974       46.31177       63.30411
H         39.09645       44.95314       64.29312
N         41.76602       43.69910       63.18475
C         42.31275       42.71197       62.24855
C         42.09935       41.26893       62.71488
O         42.50029       40.35956       62.00228
C         43.78786       43.03013       61.91946
C         44.77544       42.55292       62.95615
N         45.75162       41.67905       62.61262
O         44.70209       42.95085       64.10454
H         42.24270       43.83953       64.08574
H         41.77292       42.79719       61.28103
H         43.89996       44.12460       61.75477
H         44.03817       42.52882       60.96067
H         45.84115       41.33506       61.64586
H         46.43045       41.34607       63.30906
N         41.42021       40.98208       63.86393
C         41.07888       39.63533       64.29546
C         42.27778       38.80676       64.69211
O         42.44979       37.72701       64.14783
H         41.05251       41.74996       64.43702
H         40.49415       39.12921       63.49658
H         40.42638       39.70689       65.19334
N         43.09222       39.22741       65.70268
C         44.23484       38.47155       66.25487
C         44.63846       39.07277       67.62321
O         44.07467       40.08301       68.01570
C         45.40020       38.41622       65.20313
C         46.67229       37.69283       65.65351
O         44.96783       37.75760       64.04038
H         42.82310       40.12640       66.12766
H         43.89062       37.43833       66.48252
H         45.68667       39.46384       64.96314
H         45.06901       38.38259       63.27558
H         47.39168       37.64455       64.80837
H         47.19051       38.24409       66.46102
H         46.43798       36.65169       65.96717
N         45.55996       38.48244       68.44223
C         45.89106       38.99735       69.77183
C         47.30573       39.55988       69.78673
O         48.24851       38.84901       69.46776
C         45.69313       37.88968       70.85233
C         44.20844       37.43680       70.87606
C         46.13124       38.40068       72.24439
C         43.92512       36.27982       71.83779
H         46.02507       37.61340       68.15000
H         45.20770       39.82313       70.05521
H         46.33374       37.01844       70.58942
H         43.91639       37.09011       69.86210
H         43.55676       38.29679       71.14765
H         45.52460       39.27932       72.55234
H         46.04438       37.61151       73.01610
H         47.20152       38.68922       72.23796
H         42.85551       35.99213       71.76030
H         44.54998       35.40017       71.57595
H         44.11112       36.56568       72.89238
N         47.51075       40.82816       70.25395
C         48.81689       41.42871       70.49324
C         49.07815       41.46727       71.99200
O         48.22114       41.06817       72.76845
C         48.85305       42.87271       69.93987
C         48.67936       42.94731       68.45601
O         47.65310       43.64596       67.93310
O         49.49165       42.41653       67.71562
H         46.69707       41.36859       70.56880
H         49.62278       40.81648       70.03277
H         49.82659       43.35072       70.17455
H         48.05099       43.46933       70.43090
N         50.26859       41.92501       72.47058
C         50.58832       41.97959       73.89216
C         49.61736       42.87762       74.66074
O         49.07322       42.38351       75.63733
C         52.06616       42.37344       74.10548
C         52.41605       42.48988       75.56911
C         52.30200       41.38358       76.43002
C         52.85439       43.72042       76.08696
C         52.61838       41.51164       77.78567
C         53.17063       43.84300       77.44183
C         53.05230       42.74011       78.29100
H         50.98574       42.22533       71.79303
H         50.49110       40.94992       74.30535
H         52.29527       43.32174       73.59272
H         52.71668       41.60441       73.63525
H         51.96731       40.42444       76.05591
H         52.94716       44.58687       75.44360
H         52.52636       40.65824       78.44481
H         53.50588       44.79473       77.83255
H         53.29669       42.83800       79.34038
N         49.31729       44.17227       74.31704
C         48.32205       44.98134       75.01493
C         46.98479       44.27664       75.16571
O         46.41617       44.26999       76.24795
C         48.13333       46.19852       74.09078
C         49.50444       46.34993       73.49033
C         49.87209       44.90044       73.19191
H         48.73237       45.29446       76.00100
H         47.46462       45.94448       73.23610
H         47.71839       47.09939       74.59087
H         49.56966       47.03133       72.61525
H         50.17756       46.72743       74.29358
H         49.39448       44.53278       72.26072
H         50.96897       44.86230       73.11292
N         46.42195       43.68483       74.07714
C         45.08081       43.10812       74.05168
C         44.95601       41.88457       74.94844
O         43.83743       41.52206       75.28493
C         44.71370       42.71358       72.60495
C         44.78612       43.91269       71.62757
C         44.67286       43.50006       70.19132
O         44.83709       44.33237       69.31407
O         44.44098       42.22035       69.85182
H         46.98042       43.68507       73.21294
H         44.36756       43.88788       74.40110
H         43.69691       42.26602       72.56455
H         45.43959       41.93638       72.29231
H         45.76182       44.42613       71.69528
H         43.99951       44.65642       71.87636
N         46.05270       41.17050       75.33037
C         46.00420       39.99728       76.17744
H         46.63768       40.17048       77.07306
H         44.97480       39.75883       76.51520
H         46.40767       39.12547       75.62019
H         46.97719       41.44884       74.98922
Ca        44.03979       42.66133       66.96257
O         47.16044       41.38169       65.71115
H         47.80795       40.73367       65.33496
H         47.31878       41.34926       66.68491

Ca 1.0



