%chk=holoCaM-CaMKII.loop4.water1.frame120.chk
%nprocshared=20
%mem=10GB
%nosave
#b3lyp/svp scf=(tight,noincore,xqc) Test 
#IOP(5/87=12) Density=Current Pop=(MK,readradii) iop(6/33=2) iop(6/42=6)

holoCaM-CaMKII.loop4.water1.frame120 

   -3  1 
C         43.55580       41.10125       71.29364
C         43.82547       40.10733       72.38690
O         44.18123       40.51303       73.48250
H         42.75149       41.79692       71.61013
H         44.47902       41.67901       71.07850
H         43.23527       40.59670       70.35695
N         43.67730       38.77541       72.15239
C         43.92619       37.74141       73.14975
C         45.36782       37.76892       73.62861
O         46.27574       37.73393       72.80938
C         43.59494       36.36058       72.55317
C         43.88839       35.25852       73.52421
O         44.69306       34.38671       73.23828
O         43.28371       35.24276       74.72258
H         43.36680       38.48225       71.21283
H         43.24544       37.89770       74.01434
H         44.18650       36.19664       71.62649
H         42.51392       36.32705       72.29406
N         45.63328       37.75967       74.96709
C         46.97502       37.74143       75.53074
C         47.21419       36.38889       76.19474
O         48.15523       35.70791       75.81025
C         47.15365       38.92681       76.53824
C         46.86811       40.28575       75.84491
C         48.56619       38.91397       77.16032
C         46.87881       41.48710       76.79673
H         44.84201       37.72951       75.62652
H         47.73726       37.86242       74.72700
H         46.41347       38.80314       77.35919
H         45.85292       40.25257       75.40291
H         47.59927       40.46112       75.02568
H         49.34105       39.06252       76.37820
H         48.67559       39.70690       77.92744
H         48.76229       37.95393       77.68053
H         47.88299       41.66305       77.22988
H         46.59079       42.40225       76.23681
H         46.15056       41.33691       77.62043
N         46.43917       35.96010       77.23495
C         46.77931       34.77843       78.02763
C         46.65124       33.42482       77.32483
O         47.15243       32.47102       77.90529
C         46.01566       34.77113       79.37168
C         44.52291       34.69405       79.22554
O         44.00029       33.73718       78.67774
O         43.75229       35.67280       79.73783
H         45.67158       36.56906       77.55492
H         47.85388       34.88702       78.30006
H         46.26817       35.70277       79.92390
H         46.35584       33.91333       79.99075
N         46.01109       33.22556       76.12953
C         45.98408       31.90689       75.48167
C         44.61555       31.24743       75.38719
O         44.57864       30.07297       75.04829
H         45.55292       34.02052       75.66443
H         46.61278       31.18958       76.04898
H         46.43116       31.97747       74.46759
N         43.45787       31.91298       75.64983
C         42.13127       31.28153       75.63980
C         41.28983       31.66846       74.43220
O         40.15199       31.22371       74.36497
C         41.38777       31.54816       76.97965
C         41.19274       32.99971       77.35693
O         40.70379       33.27921       78.43887
O         41.64578       33.98307       76.56075
H         43.52955       32.91433       75.84591
H         42.23020       30.17603       75.56113
H         41.98816       31.08130       77.78995
H         40.39678       31.04282       76.96432
N         41.78180       32.41677       73.40113
C         40.99101       32.73059       72.21878
C         39.84714       33.68801       72.48990
O         39.06164       33.91367       71.58059
H         42.76165       32.72196       73.41478
H         40.59068       31.78023       71.79986
H         41.63867       33.19475       71.44484
N         39.68955       34.29528       73.70112
C         38.57794       35.17851       74.03486
C         39.09826       36.55427       74.40005
O         40.30532       36.72741       74.51203
C         37.81700       34.55861       75.22410
C         37.21819       33.19058       74.84419
C         36.67190       32.41642       76.01658
N         36.14409       31.18738       75.81277
O         36.72324       32.87221       77.14994
H         40.37757       34.12327       74.44315
H         37.89289       35.29757       73.16708
H         37.00104       35.22735       75.57379
H         38.54320       34.42741       76.05901
H         37.99961       32.55027       74.39243
H         36.41702       33.34425       74.08959
H         36.10249       30.78587       74.86398
H         35.78477       30.63141       76.60246
N         38.23412       37.60208       74.55421
C         38.68350       38.94597       74.89876
C         37.90609       39.43776       76.10537
O         36.74746       39.80003       75.94550
C         38.52911       39.90615       73.68176
C         39.05691       41.31531       73.99914
C         39.27552       39.36563       72.44977
H         37.22821       37.44917       74.38331
H         39.75349       38.92586       75.15516
H         37.45135       39.98522       73.41667
H         38.51821       41.76161       74.85916
H         40.14140       41.28072       74.23049
H         38.90894       41.98561       73.12577
H         38.87386       38.37572       72.14815
H         39.14206       40.05380       71.58767
H         40.36231       39.26294       72.66002
N         38.46195       39.45642       77.35483
C         37.72643       39.98687       78.50238
C         37.68616       41.51146       78.44147
O         38.26474       42.08974       77.53338
C         38.22234       39.44127       79.87310
C         39.50333       40.00100       80.44594
N         40.70906       39.72478       79.91092
O         39.44806       40.67512       81.46377
H         39.39671       39.05105       77.48055
H         36.68660       39.59392       78.43609
H         38.27993       38.33239       79.84284
H         37.42541       39.68383       80.60981
H         40.80307       39.11669       79.09170
H         41.56302       40.09665       80.35286
N         37.01814       42.23051       79.38439
C         36.93084       43.69145       79.38147
C         38.30989       44.33521       79.41466
O         38.54448       45.26711       78.65939
C         36.07777       44.15454       80.57950
C         35.80345       45.64072       80.58390
C         35.11661       46.24524       79.51503
C         36.20536       46.43191       81.67239
C         34.83826       47.61480       79.53689
C         35.92151       47.80087       81.69404
C         35.23478       48.39650       80.62614
O         34.94617       49.71344       80.63846
H         36.54267       41.71369       80.13885
H         36.41185       44.00853       78.45033
H         36.58020       43.84267       81.52186
H         35.09356       43.63919       80.53551
H         34.78809       45.65874       78.66662
H         36.73003       45.98919       82.50963
H         34.30633       48.06712       78.70900
H         36.23092       48.39591       82.54379
H         35.18958       50.28659       81.37937
N         39.27919       43.86123       80.24536
C         40.64774       44.37442       80.27974
C         41.31634       44.25546       78.91145
O         41.77358       45.26662       78.39665
C         41.44899       43.62319       81.36734
C         42.87546       44.16048       81.55054
C         43.56226       43.45206       82.68436
O         43.05830       43.52709       83.93184
O         44.58332       42.81393       82.48471
H         39.03040       43.08141       80.86993
H         40.61658       45.44789       80.57490
H         41.49419       42.53889       81.12770
H         40.90425       43.74440       82.33039
H         42.84470       45.24645       81.78323
H         43.45429       44.01399       80.61256
N         41.39517       43.05836       78.25597
C         42.03143       42.90714       76.93923
C         41.34384       43.72621       75.84960
O         41.91591       43.85644       74.77557
C         42.01046       41.43301       76.48392
C         42.85350       40.49710       77.36300
C         42.60913       39.05017       77.02247
O         43.11476       38.07334       77.78850
O         41.89825       38.73921       76.08393
H         40.98663       42.23236       78.71674
H         43.08486       43.25662       77.01901
H         42.38684       41.33742       75.44141
H         40.94640       41.10315       76.50462
H         42.57984       40.64415       78.41797
H         43.93040       40.73310       77.26001
N         40.11231       44.27528       76.02628
C         39.45280       45.05967       75.00745
H         38.45325       45.38218       75.37134
H         40.05555       45.96362       74.77921
H         39.31746       44.45486       74.08675
H         39.60787       44.11843       76.90043
Ca        42.35347       36.00114       77.29152
O         40.26477       36.31118       79.42775
H         40.68563       36.38523       80.32084
H         39.61289       35.57198       79.51964

Ca 1.0



