%chk=holoCaM-CaMKII.loop1.water2.frame341.chk
%nprocshared=20
%mem=10GB
%nosave
#b3lyp/svp scf=(tight,noincore,xqc) Test 
#IOP(5/87=12) Density=Current Pop=(MK,readradii) iop(6/33=2) iop(6/42=6)

holoCaM-CaMKII.loop1.water2.frame341 

   0  1 
C         26.90650       67.20604       72.73961
C         27.61907       68.40189       73.30407
O         27.21587       68.89655       74.34477
H         25.85046       67.47250       72.52243
H         27.37696       66.86214       71.79328
H         26.93386       66.37167       73.46968
N         28.69556       68.92440       72.65733
C         29.42030       70.11210       73.10422
C         28.46971       71.30981       73.07199
O         27.90743       71.58600       72.02117
C         30.62331       70.31388       72.15349
C         31.58868       71.43948       72.41551
O         31.73864       72.06159       73.60340
O         32.32986       71.76080       71.50316
H         29.00849       68.45157       71.79439
H         29.80467       69.92706       74.12720
H         30.19999       70.48382       71.13926
H         31.22658       69.38028       72.10314
N         28.23018       72.04978       74.19300
C         27.27106       73.15691       74.26062
C         27.95304       74.51204       74.39017
O         27.24028       75.50474       74.32562
C         26.30766       72.93007       75.45629
C         25.30074       71.79000       75.22965
C         24.11398       72.26860       74.37246
C         23.06202       71.17969       74.11477
N         23.55184       70.15242       73.19531
H         28.75229       71.81363       75.04553
H         26.69345       73.23074       73.31505
H         25.73295       73.84757       75.71102
H         26.92656       72.69739       76.34450
H         24.88265       71.48630       76.21488
H         25.81943       70.91531       74.79642
H         24.45218       72.68142       73.40023
H         23.61276       73.08737       74.93631
H         22.17400       71.66619       73.65305
H         22.73510       70.71887       75.07388
H         23.84460       70.59529       72.29356
H         24.35347       69.62892       73.61104
H         22.77758       69.47839       72.99742
N         29.30242       74.65365       74.54530
C         29.96896       75.95729       74.56648
C         31.04821       76.07828       73.48776
O         31.67337       77.12709       73.40953
C         30.49790       76.26634       75.98345
C         31.54089       75.33077       76.53263
O         32.01369       75.54202       77.77526
O         31.96720       74.39176       75.88150
H         29.88379       73.81343       74.65704
H         29.23713       76.76653       74.34948
H         29.62907       76.25639       76.67774
H         30.91948       77.29522       75.99129
N         31.29199       75.07896       72.58949
C         32.24908       75.18923       71.50083
C         33.67900       75.30756       71.97329
O         34.34263       76.26690       71.60797
H         30.74018       74.21236       72.62377
H         31.97773       76.05313       70.85611
H         32.18397       74.27544       70.87303
N         34.22831       74.33891       72.75883
C         35.63098       74.32559       73.17296
C         36.37699       73.07909       72.68678
O         37.58098       73.01562       72.89870
C         35.74913       74.51892       74.70588
C         35.05853       73.50322       75.58313
O         34.40613       72.58711       75.11571
O         35.14487       73.62823       76.92066
H         33.61728       73.57442       73.06500
H         36.16410       75.18607       72.71314
H         35.32322       75.51263       74.96156
H         36.82662       74.53275       74.97850
N         35.75042       72.05118       72.03943
C         36.42902       70.86271       71.54429
C         36.13823       69.63496       72.38958
O         36.55862       68.55612       72.00455
H         34.73518       72.07777       71.89885
H         37.53294       70.99322       71.53085
H         36.10593       70.69377       70.49367
N         35.51165       69.74029       73.59905
C         35.33223       68.62634       74.52928
C         33.90178       68.53388       75.04102
O         33.08804       69.39660       74.76382
C         36.31607       68.79229       75.72707
C         37.71669       68.32899       75.33702
O         36.40777       70.12614       76.16575
H         35.22893       70.66769       73.92576
H         35.53072       67.65625       74.02451
H         36.01260       68.14551       76.57913
H         35.49434       70.49551       76.22210
H         38.40051       68.44544       76.20475
H         37.68931       67.25252       75.06188
H         38.11200       68.91724       74.48370
N         33.53720       67.43506       75.77352
C         32.20276       67.19650       76.31986
C         32.34709       66.78382       77.78694
O         32.93227       65.74227       78.04671
C         31.51665       66.06187       75.49239
C         31.33152       66.50561       74.01604
C         30.16223       65.64884       76.10445
C         30.92052       65.36621       73.08124
H         34.23793       66.69134       75.90396
H         31.57623       68.11287       76.24389
H         32.19089       65.17615       75.51254
H         32.29041       66.88771       73.61143
H         30.58563       67.32744       73.96287
H         30.29799       65.27667       77.13704
H         29.45590       66.50578       76.11839
H         29.70364       64.81015       75.54554
H         29.94225       64.92759       73.35671
H         30.83616       65.75517       72.04461
H         31.69787       64.57178       73.09444
N         31.84027       67.54866       78.80022
C         31.91022       67.13773       80.20791
C         30.86192       66.06269       80.48799
O         30.09722       65.73512       79.59630
C         31.67863       68.34119       81.16443
C         32.68605       69.47336       80.94076
O         30.38135       68.83421       80.99973
H         31.40037       68.44519       78.56416
H         32.93015       66.74786       80.42177
H         31.80065       67.97948       82.20976
H         30.26105       69.56800       81.65561
H         33.72739       69.10054       81.02340
H         32.52001       69.93451       79.95139
H         32.53196       70.26914       81.70043
N         30.73759       65.49037       81.71978
C         29.65163       64.56284       82.04148
C         28.30423       65.27000       81.94641
O         27.43857       64.78968       81.22816
C         29.82181       63.92553       83.44466
C         31.05353       63.01445       83.50162
O         29.91230       64.91561       84.43628
H         31.41772       65.74000       82.45242
H         29.65789       63.71752       81.31499
H         28.92385       63.28740       83.62848
H         29.69603       64.47749       85.30077
H         30.97039       62.21236       82.73671
H         31.98622       63.58771       83.32380
H         31.11740       62.53171       84.49986
N         28.06153       66.41982       82.64272
C         26.77417       67.11466       82.63186
C         26.30605       67.45096       81.22398
O         25.15245       67.18583       80.91506
C         26.76734       68.34877       83.57364
C         27.76380       69.47563       83.23741
C         27.64197       70.68811       84.18427
C         28.03594       70.37993       85.64116
N         27.90446       71.57015       86.48291
H         28.82492       66.80961       83.21370
H         26.01123       66.42959       83.06518
H         26.97960       67.97472       84.59575
H         25.74084       68.77739       83.57168
H         27.55800       69.84246       82.21026
H         28.80176       69.09316       83.28332
H         26.60115       71.07719       84.14876
H         28.31954       71.48713       83.80990
H         29.09079       70.02626       85.66884
H         27.38767       69.58381       86.06156
H         28.51657       72.33950       86.12649
H         26.90839       71.88966       86.49741
H         28.19410       71.33336       87.45968
N         27.15306       67.98289       80.30155
C         26.74847       68.28445       78.93081
C         26.24717       67.02727       78.23884
O         25.11133       67.02063       77.78532
C         27.89846       68.94079       78.13777
C         28.29838       70.29411       78.76200
C         29.27943       71.01276       77.89778
O         30.41456       70.41639       77.51449
O         29.02465       72.12974       77.48224
H         28.12409       68.15103       80.58520
H         25.91632       69.02347       78.95178
H         27.54363       69.12310       77.09895
H         28.78216       68.26376       78.08653
H         28.74249       70.15038       79.76036
H         27.39714       70.93447       78.87441
N         27.02323       65.91114       78.16783
C         26.57834       64.65563       77.59558
H         25.54687       64.71503       77.18941
H         27.26500       64.35378       76.77841
H         26.59379       63.87165       78.38313
H         27.96542       65.93627       78.57076
Ca        31.26904       71.29015       75.65265
O         32.61414       72.77849       78.96639
H         32.01332       73.05149       79.70393
H         33.51926       72.78665       79.36813
O         33.86796       70.35607       77.96849
H         33.85599       69.37057       78.05306
H         34.68597       70.63239       78.45410

Ca 1.0



