%chk=holoCaM.loop2.water2.frame74.chk
%nprocshared=20
%mem=10GB
%nosave
#b3lyp/svp scf=(tight,noincore,xqc) Test 
#IOP(5/87=12) Density=Current Pop=(MK,readradii) iop(6/33=2) iop(6/42=6)

holoCaM.loop2.water2.frame74 

   -2  1 
C         81.70925       33.62477       10.50910
C         80.87234       34.78255       10.03127
O         79.76789       34.56358        9.56184
H         82.68352       33.96722       10.92096
H         81.17222       33.08404       11.31820
H         81.90898       32.92516        9.67264
N         81.33460       36.05523       10.15654
C         80.55988       37.25543        9.83266
C         80.26537       37.42016        8.34345
O         81.00719       36.91334        7.51389
C         81.35990       38.47108       10.32466
C         80.77148       39.82307       10.04986
O         81.45411       40.57083        9.37344
O         79.57292       40.27984       10.51575
H         82.26995       36.17421       10.57758
H         79.61379       37.21642       10.39640
H         82.35200       38.42753        9.81648
H         81.56955       38.38972       11.40013
N         79.19431       38.18007        7.95458
C         78.86906       38.52753        6.57133
C         78.54004       40.02661        6.37855
O         78.22682       40.39729        5.25553
C         77.63986       37.70996        6.15212
H         78.54697       38.49484        8.68918
H         79.70712       38.24830        5.89575
H         77.36946       37.91648        5.09399
H         77.85244       36.62361        6.24516
H         76.76872       37.95798        6.79738
N         78.48563       40.91572        7.42106
C         77.84219       42.23425        7.34065
C         78.57674       43.38156        8.07563
O         78.07983       44.49825        8.02642
C         76.39885       42.07829        7.88493
C         76.35138       41.35928        9.20098
O         77.04319       41.83048       10.23605
O         75.73072       40.31542        9.32148
H         78.70535       40.57995        8.35664
H         77.74773       42.55954        6.28190
H         75.80480       41.47607        7.16559
H         75.91301       43.07206        7.98304
N         79.75018       43.20953        8.74749
C         80.50455       44.27591        9.41489
C         79.88945       44.85744       10.69092
O         80.50049       45.74863       11.26337
H         80.17558       42.28886        8.72184
H         80.69136       45.09385        8.68551
H         81.49408       43.86530        9.71369
N         78.70133       44.42519       11.19548
C         78.02906       44.99682       12.36809
C         78.68736       44.69493       13.73269
O         78.13356       45.11799       14.73842
C         76.54174       44.55722       12.37928
C         76.29862       43.10170       12.67373
N         75.03581       42.63947       12.76381
O         77.22875       42.33179       12.84031
H         78.20381       43.71855       10.66029
H         77.99807       46.10008       12.23240
H         76.08188       44.80118       11.39528
H         76.00596       45.14191       13.15612
H         74.22802       43.25903       12.60926
H         74.87439       41.65816       13.01109
N         79.85696       44.00161       13.85900
C         80.52887       43.75402       15.13604
C         79.91628       42.68464       16.04139
O         80.48549       42.45740       17.09958
H         80.35702       43.71922       13.00944
H         80.61453       44.71306       15.69292
H         81.56152       43.40615       14.91900
N         78.78372       41.99513       15.72297
C         78.16774       40.97793       16.58269
C         77.86595       39.67956       15.84885
O         77.79507       39.65691       14.62947
C         76.82863       41.52077       17.15377
C         77.07907       42.42239       18.35807
O         76.11371       42.24528       16.18120
H         78.30815       42.22991       14.85336
H         78.84574       40.70373       17.42181
H         76.18942       40.69371       17.53951
H         75.93842       41.63525       15.41963
H         77.54304       41.82247       19.17198
H         77.74806       43.26786       18.09959
H         76.11214       42.81872       18.73432
N         77.62100       38.55117       16.58291
C         77.12491       37.29955       16.02186
C         75.65396       37.47260       15.71511
O         74.88406       37.80135       16.60808
C         77.33360       36.10470       17.01322
C         78.83561       35.83851       17.30337
C         76.65690       34.80419       16.52769
C         79.64523       35.28559       16.12048
H         77.73997       38.60334       17.60661
H         77.67596       37.04721       15.09624
H         76.85134       36.37323       17.97926
H         78.91126       35.09427       18.12550
H         79.31114       36.77584       17.65863
H         77.03106       34.49902       15.53029
H         76.84061       33.97625       17.24394
H         75.56031       34.93423       16.46489
H         80.70457       35.16162       16.42545
H         79.27088       34.29031       15.80305
H         79.62184       35.96325       15.25249
N         75.19211       37.17583       14.47501
C         73.78555       37.13532       14.12192
C         73.36284       35.67088       14.18436
O         74.21125       34.82126       14.41965
C         73.58706       37.71161       12.69838
C         74.32113       39.00794       12.42864
O         75.66087       39.04634       12.66822
O         73.74315       39.93660       11.88612
H         75.85699       36.82054       13.78232
H         73.18846       37.71670       14.85991
H         72.50302       37.79278       12.45536
H         74.04070       36.99278       11.98509
N         72.07127       35.28405       14.03189
C         71.67589       33.88486       14.18140
C         72.30564       32.96493       13.13127
O         72.81332       31.93216       13.53990
C         70.15367       33.74236       14.24771
C         69.74487       32.31284       14.51472
C         70.15538       31.64162       15.68527
C         68.94604       31.63607       13.58265
C         69.76918       30.31714       15.90942
C         68.55923       30.31459       13.81329
C         68.96956       29.65515       14.97482
H         71.35178       36.00507       13.87150
H         72.04385       33.54936       15.17796
H         69.70302       34.11344       13.30795
H         69.77353       34.37624       15.07793
H         70.77370       32.13496       16.42516
H         68.62378       32.13289       12.67656
H         70.08850       29.80431       16.80820
H         67.94061       29.80335       13.08875
H         68.66743       28.63138       15.15008
N         72.36001       33.24547       11.78958
C         73.12392       32.45391       10.82466
C         74.52399       32.11486       11.31032
O         75.00839       31.01538       11.08478
C         73.25208       33.41365        9.62493
C         71.93613       34.14478        9.66996
C         71.79382       34.42369       11.16260
H         72.55484       31.54194       10.54033
H         74.02935       34.18658        9.82452
H         73.50438       32.92541        8.65943
H         71.86855       35.04916        9.02757
H         71.14933       33.42043        9.36190
H         72.38935       35.30953       11.46200
H         70.72182       34.57452       11.39075
N         75.23985       33.07672       11.94577
C         76.65769       32.98104       12.26337
C         76.92953       32.16034       13.51580
O         78.07091       31.77601       13.72933
C         77.20977       34.40596       12.40219
C         76.90106       35.21516       11.11802
C         77.24998       36.64220       11.23731
O         77.80364       37.11372       12.36385
O         76.99640       37.39500       10.31184
H         74.75805       33.96963       12.11452
H         77.17622       32.51152       11.39810
H         78.30383       34.39831       12.60084
H         76.70683       34.87868       13.26803
H         75.82436       35.23453       10.87959
H         77.42435       34.76919       10.25389
N         75.93015       31.83905       14.38178
C         76.12072       31.00060       15.54321
H         76.75142       31.51315       16.29848
H         75.13153       30.77245       15.99805
H         76.58800       30.04037       15.24070
H         74.98855       32.19663       14.21668
Ca        77.65678       39.64560       11.64305
O         80.14993       37.96402       13.22892
H         81.05107       37.67986       13.51767
H         79.56949       37.77716       14.00131
O         80.17066       41.27113       12.92249
H         80.44147       40.40473       13.30679
H         80.97444       41.58435       12.43628

Ca 1.0



