%chk=holoCaM.loop2.water3.frame397.chk
%nprocshared=20
%mem=10GB
%nosave
#b3lyp/svp scf=(tight,noincore,xqc) Test 
#IOP(5/87=12) Density=Current Pop=(MK,readradii) iop(6/33=2) iop(6/42=6)

holoCaM.loop2.water3.frame397 

   -2  1 
C         95.79837       56.14418       98.22096
C         96.88525       56.56146       97.27814
O         96.59025       56.95503       96.15806
H         94.80051       56.24939       97.74429
H         95.94797       55.08398       98.51294
H         95.82997       56.78234       99.12927
N         98.18497       56.51393       97.67968
C         99.28419       56.93234       96.82365
C         99.38552       56.03395       95.59458
O         99.58378       54.83735       95.74271
C        100.61006       56.94853       97.61990
C        101.72548       57.43411       96.74670
O        102.71263       56.75079       96.55764
O        101.60321       58.59537       96.09497
H         98.38903       56.19943       98.64145
H         99.08570       57.98132       96.51187
H        100.84992       55.93409       98.01025
H        100.50345       57.64123       98.48232
N         99.24458       56.55983       94.34254
C         99.32161       55.77165       93.11289
C        100.72904       55.25905       92.77777
O        100.84675       54.54796       91.78963
C         98.79342       56.59967       91.93155
H         99.01159       57.55807       94.26736
H         98.63808       54.90049       93.22099
H         97.75495       56.93748       92.13973
H         99.43182       57.48993       91.75469
H         98.76986       55.98630       91.00519
N        101.82956       55.54342       93.53813
C        103.16768       55.00781       93.26331
C        103.57702       53.96029       94.29572
O        104.64101       53.38049       94.12597
C        104.21898       56.14517       93.26066
C        104.11633       57.07337       92.08018
O        104.38808       56.66827       90.96161
O        103.76289       58.36072       92.25032
H        101.71740       56.12722       94.37294
H        103.19112       54.48223       92.28458
H        105.24915       55.72791       93.23234
H        104.13287       56.70934       94.21378
N        102.80956       53.65204       95.38197
C        103.19746       52.66662       96.38235
C        104.51671       53.04417       97.01444
O        105.44614       52.25077       97.01486
H        101.92249       54.14334       95.53870
H        103.25359       51.65656       95.92356
H        102.41796       52.64494       97.17608
N        104.66166       54.29498       97.51713
C        105.89033       54.85655       98.05799
C        105.63313       55.42600       99.44657
O        106.38892       55.11213      100.35539
C        106.39473       55.94577       97.09186
C        107.67246       56.60078       97.56377
N        108.80261       55.87811       97.75264
O        107.68621       57.80464       97.77148
H        103.84823       54.91016       97.43829
H        106.68694       54.08175       98.11778
H        105.60608       56.71613       96.96451
H        106.58521       55.48601       96.09611
H        108.82183       54.86307       97.57891
H        109.66764       56.33763       98.07484
N        104.55855       56.23894       99.68784
C        104.22609       56.77889      100.99602
C        103.84481       58.25381      100.97195
O        103.49700       58.75307      102.03222
H        103.88530       56.41702       98.93354
H        105.05484       56.61957      101.72106
H        103.33938       56.22613      101.37225
N        103.86940       59.01720       99.83454
C        103.50241       60.43676       99.80212
C        102.40268       60.68723       98.77855
O        102.55089       60.27212       97.64581
C        104.74963       61.27593       99.47722
C        104.40459       62.77376       99.44819
O        105.71187       61.03851      100.47218
H        104.19485       58.60013       98.95057
H        103.14264       60.77556      100.79825
H        105.15142       60.95980       98.48674
H        106.55405       61.46634      100.16951
H        103.66437       62.99638       98.65209
H        103.97736       63.08870      100.42431
H        105.31506       63.37081       99.24078
N        101.31106       61.44254       99.09518
C        100.15735       61.66212       98.21748
C        100.24434       63.03406       97.54038
O        100.41075       64.03377       98.22441
C         98.85411       61.54572       99.07165
C         98.75836       60.15827       99.76045
C         97.59413       61.81168       98.22409
C         97.65323       60.09179      100.81861
H        101.28807       61.88723      100.02526
H        100.11805       60.87932       97.42819
H         98.91064       62.32707       99.86249
H         99.70459       59.93759      100.29709
H         98.60409       59.36290       98.99850
H         96.67658       61.80982       98.84337
H         97.63865       62.81465       97.76591
H         97.49083       61.04875       97.42485
H         96.64607       60.24054      100.38311
H         97.66556       59.09436      101.30488
H         97.83191       60.86405      101.59822
N        100.08157       63.14448       96.18534
C        100.05975       64.40808       95.44403
C         98.65184       64.98882       95.38251
O         97.72721       64.38379       95.89496
C        100.54835       64.16577       93.99447
C        101.96532       63.68695       93.93984
O        102.22815       62.59844       93.45474
O        102.95854       64.47948       94.38553
H         99.87414       62.29090       95.65514
H        100.72239       65.15136       95.93948
H        100.51264       65.10139       93.40203
H         99.87774       63.42362       93.50293
N         98.41936       66.17794       94.75868
C         97.09855       66.78937       94.61102
C         96.12750       65.91807       93.79821
O         95.07453       65.61422       94.33649
C         97.24322       68.20187       94.00132
C         95.93557       68.95076       93.87902
C         95.15545       69.23225       95.01598
C         95.49621       69.39908       92.62101
C         93.95895       69.94614       94.89229
C         94.30156       70.11565       92.50320
C         93.53340       70.38895       93.63745
H         99.23387       66.68680       94.37956
H         96.67297       66.92505       95.63082
H         97.73604       68.12990       93.01101
H         97.91536       68.79974       94.65466
H         95.47205       68.90616       95.99817
H         96.08072       69.20145       91.73117
H         93.36343       70.16078       95.77042
H         93.97337       70.46259       91.53195
H         92.61017       70.94627       93.54413
N         96.38015       65.46356       92.52396
C         95.45142       64.62854       91.75869
C         95.11897       63.33142       92.47354
O         93.95666       62.94709       92.48550
C         96.17610       64.40774       90.41953
C         97.63948       64.53979       90.78333
C         97.59914       65.69622       91.77416
H         94.49098       65.14689       91.54301
H         95.89220       63.48785       89.86290
H         95.95364       65.28288       89.76854
H         97.96074       63.61920       91.31043
H         98.33035       64.69236       89.92733
H         98.52492       65.67523       92.36901
H         97.49792       66.66155       91.23113
N         96.07422       62.62772       93.12793
C         95.82363       61.38341       93.84664
C         94.78669       61.60592       94.93571
O         93.81036       60.87148       94.97997
C         97.15415       60.84688       94.40585
C         98.10535       60.48813       93.23956
C         99.46004       60.06618       93.69284
O         99.75633       60.00448       94.99904
O        100.30778       59.77799       92.86496
H         97.02288       63.02383       93.15235
H         95.43282       60.60940       93.14769
H         96.97536       59.93326       95.01579
H         97.61318       61.62228       95.05703
H         98.26603       61.35688       92.57243
H         97.65657       59.66681       92.64042
N         94.90166       62.65165       95.79888
C         93.91430       62.98860       96.80333
H         93.07445       62.26431       96.83323
H         94.39760       63.02020       97.80133
H         93.49882       63.99478       96.57775
H         95.70488       63.27762       95.70956
Ca       102.62998       58.81677       94.12438
O        104.96104       61.25568       92.96799
H        105.72609       61.01659       93.54892
H        104.95814       62.24583       92.95843
O        104.27512       62.15506       95.92856
H        103.58028       62.79129       96.23044
H        105.10084       62.45593       96.38389
O        105.46012       59.43600       95.90008
H        104.76806       58.89729       96.35888
H        106.13312       58.77678       95.59624

Ca 1.0



