%chk=holoCaM.loop2.water2.frame474.chk
%nprocshared=20
%mem=10GB
%nosave
#b3lyp/svp scf=(tight,noincore,xqc) Test 
#IOP(5/87=12) Density=Current Pop=(MK,readradii) iop(6/33=2) iop(6/42=6)

holoCaM.loop2.water2.frame474 

   -2  1 
C          0.07165       63.77223       66.89791
C         -0.97351       64.51360       67.67717
O         -0.62304       65.31114       68.52955
H          1.09153       64.04630       67.24091
H         -0.07087       62.67885       67.02854
H         -0.02391       64.02474       65.82055
N         -2.28879       64.30069       67.39989
C         -3.42223       64.96415       68.04918
C         -3.53597       64.55930       69.52814
O         -4.28836       63.64895       69.84772
C         -4.69200       64.58718       67.24475
C         -5.93996       65.30083       67.65554
O         -6.97723       65.05333       67.06832
O         -5.93396       66.22277       68.63250
H         -2.48975       63.63571       66.63491
H         -3.30617       66.06702       67.96210
H         -4.86412       63.49055       67.31254
H         -4.52303       64.84435       66.17496
N         -2.76623       65.16641       70.47855
C         -2.69567       64.73099       71.87217
C         -3.94175       65.00037       72.71624
O         -3.97203       64.48673       73.82651
C         -1.48307       65.37989       72.55305
H         -2.12652       65.90874       70.17896
H         -2.51485       63.63261       71.86213
H         -1.60260       66.48438       72.58574
H         -1.35834       64.99697       73.58808
H         -0.55927       65.13853       71.98376
N         -4.99155       65.77337       72.29879
C         -6.21753       65.93974       73.09359
C         -7.42421       65.32534       72.39415
O         -8.49592       65.31676       72.98375
C         -6.47189       67.41329       73.51466
C         -6.87287       68.37509       72.42835
O         -7.08728       69.54371       72.70837
O         -6.94119       67.98743       71.14862
H         -4.93421       66.22249       71.37953
H         -6.11157       65.38548       74.05058
H         -5.56089       67.80167       74.02095
H         -7.29911       67.42137       74.25718
N         -7.32300       64.75806       71.15550
C         -8.41498       64.07713       70.49138
C         -9.57656       64.99079       70.20144
O        -10.66295       64.71330       70.68960
H         -6.42515       64.75204       70.66110
H         -8.74227       63.22602       71.12828
H         -8.05252       63.65747       69.52768
N         -9.43223       66.08315       69.39282
C        -10.54956       66.96460       69.04908
C        -10.86299       66.97945       67.55204
O        -11.87340       67.55989       67.18087
C        -10.29484       68.39284       69.56781
C         -9.24692       69.14101       68.77444
N         -9.57946       70.27246       68.11070
O         -8.09920       68.72779       68.72225
H         -8.49793       66.28504       69.01303
H        -11.46554       66.59605       69.55897
H        -10.00461       68.35552       70.64049
H        -11.25275       68.95223       69.50396
H        -10.54157       70.63954       68.13351
H         -8.87513       70.78617       67.56671
N        -10.04258       66.38718       66.63656
C        -10.30758       66.33157       65.20938
C         -9.26894       67.06508       64.38162
O         -9.26959       66.86550       63.17461
H         -9.18194       65.93113       66.94720
H        -11.30746       66.73896       64.94549
H        -10.30055       65.25877       64.92037
N         -8.41915       67.99248       64.92094
C         -7.49299       68.78914       64.10971
C         -6.11915       68.89494       64.76341
O         -5.92308       68.38018       65.85711
C         -8.07838       70.20998       63.89639
C         -9.41528       70.17482       63.15066
O         -8.24356       70.84838       65.13436
H         -8.50763       68.22668       65.92099
H         -7.35468       68.32642       63.10709
H         -7.37167       70.79373       63.26462
H         -8.25193       71.82555       64.95965
H         -9.28928       69.67855       62.16467
H        -10.18598       69.63438       63.73818
H         -9.77284       71.21159       62.97759
N         -5.12736       69.60353       64.14407
C         -3.82603       69.88417       64.73843
C         -3.67776       71.38638       64.95873
O         -3.89537       72.17015       64.04503
C         -2.64388       69.27719       63.92199
C         -2.55856       69.80255       62.46489
C         -2.72169       67.73930       63.98059
C         -1.33735       69.28467       61.69967
H         -5.31585       70.00813       63.21571
H         -3.75624       69.40781       65.73430
H         -1.70493       69.57013       64.44546
H         -2.47184       70.90758       62.48108
H         -3.47198       69.52678       61.89779
H         -3.62776       67.36778       63.45838
H         -1.82287       67.27188       63.53130
H         -2.75183       67.39781       65.03843
H         -0.40190       69.54971       62.23670
H         -1.38334       68.18634       61.55640
H         -1.31052       69.74835       60.69121
N         -3.26383       71.84195       66.17328
C         -2.97677       73.23151       66.50307
C         -1.48560       73.45574       66.24822
O         -0.82863       72.51450       65.83574
C         -3.39910       73.42786       67.98516
C         -3.47692       74.82313       68.54398
O         -3.76632       74.98026       69.84981
O         -3.36613       75.80998       67.83853
H         -2.98502       71.14817       66.87224
H         -3.56744       73.90515       65.84392
H         -2.71629       72.82030       68.61821
H         -4.42276       73.01671       68.11241
N         -0.87388       74.65955       66.41034
C          0.52826       74.87628       66.06964
C          1.48518       73.99672       66.87781
O          2.35901       73.41176       66.25334
C          0.88911       76.37674       66.16239
C          2.21998       76.70030       65.51947
C          2.43444       76.42527       64.15401
C          3.24745       77.30649       66.26147
C          3.65271       76.74125       63.54938
C          4.46442       77.62743       65.64881
C          4.66701       77.34343       64.29523
H         -1.41970       75.46725       66.71922
H          0.63592       74.59973       64.99880
H          0.86171       76.71605       67.21742
H          0.12245       76.95907       65.60630
H          1.65995       75.97110       63.54976
H          3.10593       77.53869       67.30931
H          3.80656       76.52359       62.49997
H          5.25065       78.10033       66.22223
H          5.60771       77.59330       63.82203
N          1.39832       73.81610       68.23772
C          2.29558       72.95536       69.00761
C          2.43560       71.56648       68.40744
O          3.54356       71.09016       68.20849
C          1.61223       72.85850       70.38528
C          0.93585       74.20315       70.49551
C          0.37172       74.38284       69.09077
H          3.28472       73.45676       69.09641
H          0.78582       72.11166       70.36291
H          2.29095       72.58719       71.22195
H          0.18250       74.28989       71.30827
H          1.72985       74.96659       70.65315
H         -0.55975       73.79270       68.95568
H          0.17819       75.45826       68.92077
N          1.31177       70.87585       68.08608
C          1.27633       69.52810       67.52883
C          1.95815       69.48883       66.17461
O          2.81659       68.64343       65.96462
C         -0.19480       69.06486       67.43436
C         -0.80542       68.99249       68.85025
C         -2.26077       68.68782       68.86536
O         -3.00917       69.15949       68.03334
O         -2.79071       68.19474       69.98370
H          0.41541       71.36027       68.24195
H          1.79425       68.81696       68.21186
H         -0.25862       68.05656       66.96829
H         -0.76473       69.78066       66.80208
H         -0.70900       69.95139       69.39627
H         -0.26843       68.22916       69.45360
N          1.65084       70.40312       65.21747
C          2.28485       70.42802       63.91955
H          3.38580       70.51964       64.03395
H          2.03788       69.50178       63.36130
H          1.91790       71.30379       63.34104
H          0.96565       71.13184       65.42759
Ca        -4.99304       68.34309       70.16534
O         -4.49220       71.33087       70.37030
H         -3.82740       71.49091       71.08557
H         -5.37038       71.44530       70.81332
O         -6.26812       71.05718       68.02393
H         -6.31413       71.26956       67.05844
H         -6.81762       71.75719       68.45921

Ca 1.0



