%chk=holoCaM-CaMKII.loop1.water2.frame437.chk
%nprocshared=20
%mem=10GB
%nosave
#b3lyp/svp scf=(tight,noincore,xqc) Test 
#IOP(5/87=12) Density=Current Pop=(MK,readradii) iop(6/33=2) iop(6/42=6)

holoCaM-CaMKII.loop1.water2.frame437 

   0  1 
C         71.76417       76.56002       23.15901
C         73.04149       77.21414       22.72104
O         74.09320       76.71851       23.08045
H         70.87447       77.08700       22.75520
H         71.74590       75.51089       22.79450
H         71.70691       76.56209       24.26731
N         73.01747       78.30697       21.90765
C         74.19737       78.98718       21.36773
C         74.87886       79.87743       22.42225
O         74.82298       81.09469       22.31255
C         73.74123       79.78369       20.11970
C         74.87622       80.42187       19.37877
O         75.89234       79.67303       18.91125
O         74.86185       81.62135       19.16716
H         72.08943       78.62648       21.58727
H         74.91984       78.23316       20.98466
H         72.99367       80.55593       20.40985
H         73.24962       79.07880       19.41345
N         75.55187       79.32993       23.47598
C         76.19057       80.10431       24.54151
C         77.43626       80.86440       24.08893
O         77.97189       81.60388       24.90346
C         76.57757       79.16089       25.70779
C         75.33193       78.57066       26.39165
C         75.71500       77.58182       27.50123
C         74.50792       77.13117       28.34435
N         73.48032       76.44992       27.55455
H         75.60612       78.31172       23.54314
H         75.45809       80.84629       24.93045
H         77.14228       79.72469       26.48286
H         77.23635       78.35029       25.32165
H         74.69709       78.04616       25.64869
H         74.74968       79.41059       26.82966
H         76.43283       78.07206       28.19434
H         76.21667       76.69703       27.05042
H         74.05955       78.01504       28.85016
H         74.87647       76.43862       29.13330
H         72.72726       76.11755       28.19958
H         73.04526       77.10626       26.86788
H         73.88953       75.62628       27.05758
N         77.96947       80.73106       22.83943
C         79.16998       81.44584       22.39539
C         78.89540       82.40891       21.23277
O         79.81068       83.12590       20.85182
C         80.34736       80.47438       22.11816
C         80.11470       79.38689       21.10354
O         78.88366       79.11233       20.64440
O         81.06087       78.72476       20.70950
H         77.50676       80.09620       22.18204
H         79.53681       82.10752       23.21043
H         80.65605       79.98196       23.06552
H         81.20719       81.09097       21.77466
N         77.65335       82.56077       20.68937
C         77.30196       83.63484       19.76987
C         77.97311       83.58608       18.41567
O         78.59671       84.57194       18.04839
H         76.88023       81.96877       21.01586
H         77.51759       84.60973       20.26085
H         76.20908       83.61173       19.59164
N         77.83899       82.50657       17.59096
C         78.33482       82.49272       16.20877
C         77.23884       82.18606       15.18704
O         77.51749       82.32270       14.00349
C         79.52554       81.52926       16.06481
C         79.16539       80.13655       16.45944
O         78.58669       79.39583       15.68677
O         79.23779       79.82760       17.75727
H         77.36286       81.67305       17.96220
H         78.71926       83.50142       15.94369
H         80.32742       81.88139       16.75045
H         79.94723       81.53886       15.03700
N         75.98579       81.77007       15.54383
C         74.90663       81.56684       14.58992
C         74.45477       80.12724       14.47937
O         73.45509       79.90778       13.81016
H         75.75103       81.60425       16.53028
H         75.18217       81.90282       13.56712
H         74.04812       82.18959       14.92171
N         75.15000       79.08865       15.03459
C         74.73970       77.69451       14.87040
C         74.62583       76.97323       16.20159
O         75.05585       77.47664       17.22883
C         75.73245       76.93805       13.94538
C         75.66533       77.43386       12.49139
O         77.04400       77.00524       14.44954
H         76.02371       79.27914       15.54361
H         73.73275       77.64137       14.40271
H         75.45226       75.86384       13.89877
H         77.45927       77.84395       14.11958
H         76.37801       76.85445       11.86571
H         74.64201       77.27999       12.08803
H         75.92290       78.51126       12.41996
N         74.04230       75.74296       16.21771
C         73.95665       74.86414       17.37485
C         74.68331       73.59131       16.99254
O         74.35369       73.00434       15.97005
C         72.47069       74.57525       17.74365
C         71.75604       75.89248       18.14494
C         72.38919       73.53918       18.88904
C         70.25616       75.72444       18.40385
H         73.65023       75.38523       15.33247
H         74.44255       75.31904       18.26746
H         71.96248       74.14766       16.85055
H         71.85796       76.62875       17.31974
H         72.23521       76.32287       19.05267
H         72.88362       72.58901       18.60203
H         72.87559       73.92910       19.80838
H         71.34041       73.27132       19.12279
H         69.75514       75.31551       17.50085
H         70.05808       75.05950       19.26811
H         69.80986       76.71317       18.63988
N         75.66822       73.09121       17.78445
C         76.41163       71.88375       17.44845
C         75.86976       70.70249       18.22543
O         74.96883       70.86894       19.03461
C         77.92977       72.09260       17.69764
C         78.49628       73.26951       16.89272
O         78.20760       72.24522       19.06894
H         75.85963       73.55636       18.67971
H         76.26823       71.63614       16.37360
H         78.47633       71.18866       17.35672
H         77.96831       73.16855       19.33856
H         78.33345       73.10935       15.80677
H         78.00867       74.22169       17.19293
H         79.58719       73.35715       17.08249
N         76.37053       69.45615       18.00214
C         75.91916       68.26805       18.72120
C         76.14176       68.46417       20.21165
O         75.23892       68.19655       20.99091
C         76.65741       67.01453       18.19505
C         76.12342       65.73146       18.84254
O         76.46536       66.92517       16.80525
H         77.11468       69.35256       17.29572
H         74.83291       68.11607       18.52494
H         77.74452       67.12551       18.42139
H         77.23424       66.41642       16.43675
H         76.26798       65.74921       19.94224
H         75.04016       65.61321       18.62116
H         76.66348       64.85175       18.43357
N         77.30627       69.01301       20.65936
C         77.56408       69.35829       22.05407
C         76.49026       70.29294       22.59757
O         75.85760       69.94600       23.58560
C         78.97125       70.00153       22.16469
C         79.30209       70.52819       23.57397
C         80.71662       71.12441       23.67678
C         81.82046       70.05602       23.60891
N         83.14301       70.65907       23.77262
H         78.02945       69.23977       19.95840
H         77.56092       68.42866       22.66647
H         79.04776       70.85843       21.45879
H         79.70934       69.23414       21.85260
H         79.17893       69.72794       24.33444
H         78.58617       71.34543       23.80991
H         80.79919       71.63197       24.66238
H         80.86362       71.89055       22.88311
H         81.79024       69.51797       22.63866
H         81.65596       69.31763       24.42531
H         83.86612       69.90367       23.76561
H         83.33535       71.32010       22.98537
H         83.19917       71.16913       24.68418
N         76.25486       71.50741       22.02614
C         75.31297       72.47802       22.58699
C         73.85636       72.02360       22.53262
O         73.01952       72.71415       23.09975
C         75.42334       73.82823       21.85170
C         76.80742       74.48175       21.99966
C         76.87529       75.77470       21.23980
O         77.14284       76.92367       21.88694
O         76.70908       75.78852       20.03045
H         76.81000       71.76350       21.19868
H         75.58174       72.64052       23.65521
H         74.67092       74.52529       22.26541
H         75.18069       73.66881       20.78336
H         77.60609       73.81770       21.61499
H         77.00701       74.67377       23.07637
N         73.46007       70.90721       21.86323
C         72.07427       70.49753       21.80342
H         71.46265       71.29680       21.33280
H         71.97922       69.57342       21.19429
H         71.69486       70.29114       22.82656
H         74.14515       70.33512       21.36229
Ca        78.53891       77.97262       18.76262
O         80.51295       75.51769       19.17393
H         79.88238       74.84431       19.53219
H         80.55918       76.21064       19.87877
O         79.30892       76.45251       16.26292
H         79.71522       77.02673       15.56746
H         80.00210       75.77296       16.45191

Ca 1.0



