%chk=holoCaM-CaMKII.loop3.water3.frame323.chk
%nprocshared=20
%mem=10GB
%nosave
#b3lyp/svp scf=(tight,noincore,xqc) Test 
#IOP(5/87=12) Density=Current Pop=(MK,readradii) iop(6/33=2) iop(6/42=6)

holoCaM-CaMKII.loop3.water3.frame323 

   0  1 
C         39.10556       50.72408       74.95746
C         38.36177       51.80886       75.67585
O         37.26312       51.57347       76.15885
H         40.08182       50.54832       75.45636
H         38.52400       49.77861       74.95431
H         39.28696       51.03715       73.90709
N         38.91802       53.04491       75.77874
C         38.26128       54.16643       76.43742
C         36.97151       54.50420       75.70384
O         37.00047       54.63407       74.48748
C         39.21509       55.36838       76.46923
C         38.72276       56.49897       77.32125
O         39.40762       57.49509       77.41203
O         37.57040       56.42927       78.01298
H         39.85481       53.18724       75.36769
H         38.05950       53.88246       77.49131
H         39.39990       55.73044       75.43446
H         40.18525       55.04483       76.90791
N         35.79841       54.64448       76.38336
C         34.49722       54.75403       75.72948
C         34.00599       56.19321       75.60049
O         33.04742       56.40558       74.87130
C         33.54925       53.77921       76.46119
C         32.10039       53.70686       75.97280
C         31.41157       52.49907       76.64164
C         29.92968       52.34575       76.27386
N         29.09511       53.35806       76.92256
H         35.81783       54.60189       77.41298
H         34.59463       54.40624       74.67720
H         33.52023       54.02894       77.54443
H         34.01181       52.77246       76.35345
H         32.07580       53.56359       74.87151
H         31.59016       54.65846       76.23022
H         31.50671       52.54346       77.74966
H         31.94171       51.58526       76.29231
H         29.59040       51.34515       76.62369
H         29.80392       52.38159       75.16933
H         28.09796       53.19840       76.65195
H         29.17336       53.26515       77.96229
H         29.37253       54.32111       76.63178
N         34.62595       57.23636       76.22264
C         34.26369       58.64043       76.00108
C         35.50234       59.53786       75.82472
O         35.32963       60.74210       75.69501
C         33.29381       59.10442       77.11048
C         33.86707       59.01547       78.48059
O         33.15750       59.17082       79.46043
O         35.18328       58.85374       78.62634
H         35.35604       57.02615       76.91417
H         33.67151       58.74076       75.06479
H         32.41288       58.42844       77.07346
H         32.93794       60.14225       76.92858
N         36.77059       59.02433       75.73754
C         37.94580       59.82737       75.42836
C         38.50716       60.67235       76.56100
O         39.45550       61.39366       76.28386
H         36.91227       58.00651       75.75101
H         37.71614       60.47159       74.55095
H         38.77024       59.14743       75.11939
N         38.03014       60.65153       77.84400
C         38.59434       61.52216       78.88387
C         40.05130       61.21412       79.25574
O         40.61780       61.98409       80.02015
C         37.70000       61.59294       80.14956
C         37.52926       60.33898       81.02886
N         37.71185       60.57837       82.45386
O         38.17992       59.18245       80.61732
H         37.22466       60.05710       78.06913
H         38.57479       62.55435       78.46793
H         36.67833       61.90928       79.84568
H         38.09059       62.40984       80.79323
H         36.98579       61.26352       82.76105
H         37.51675       59.68516       82.96165
N         40.71779       60.12019       78.78234
C         42.10279       59.79313       79.10226
C         42.23428       58.57476       80.00719
O         43.35102       58.23422       80.36170
H         40.22327       59.46973       78.17326
H         42.58896       60.63510       79.64008
H         42.66156       59.63435       78.15517
N         41.13262       57.93771       80.49757
C         41.15409       56.95391       81.57389
C         40.27924       55.75777       81.25491
O         39.19904       55.92134       80.70921
C         40.60570       57.64548       82.84026
C         41.58785       58.67979       83.33351
C         41.31769       60.05352       83.22649
C         42.80350       58.26116       83.90062
C         42.25727       60.99144       83.66937
C         43.73426       59.19775       84.35256
C         43.46902       60.56483       84.23499
O         44.38484       61.45544       84.66571
H         40.21339       58.25763       80.19816
H         42.18277       56.59827       81.79682
H         40.43414       56.91719       83.66344
H         39.62389       58.10739       82.59830
H         40.39332       60.39979       82.78512
H         43.02697       57.20572       83.99819
H         42.04460       62.04825       83.56999
H         44.66425       58.85835       84.79120
H         44.24760       62.41058       84.59561
N         40.64459       54.52846       81.72266
C         39.81698       53.33382       81.61349
C         39.31440       52.97358       83.00345
O         40.11300       52.76986       83.90492
C         40.62009       52.16515       80.97144
C         41.00270       52.52301       79.51127
C         39.80505       50.85101       81.01515
C         41.95365       51.51244       78.86509
H         41.52698       54.44515       82.24846
H         38.93885       53.52058       80.96834
H         41.54780       52.01596       81.56739
H         41.52171       53.50463       79.49416
H         40.08247       52.61080       78.89095
H         40.38568       49.99735       80.61570
H         39.55038       50.57512       82.05963
H         38.86183       50.95217       80.43750
H         42.20385       51.84723       77.83664
H         42.89285       51.44590       79.45457
H         41.49914       50.50532       78.78428
N         37.97409       52.83248       83.21209
C         37.36745       52.42799       84.47311
C         36.77589       51.02858       84.34639
O         36.85085       50.42194       83.28859
C         36.28441       53.44863       84.86790
O         36.86319       54.70932       85.05184
H         37.34505       52.97881       82.41929
H         38.13163       52.38288       85.27855
H         35.79581       53.13985       85.81713
H         35.51462       53.50029       84.06332
H         36.12369       55.31397       85.32378
N         36.20547       50.44112       85.43621
C         35.68099       49.07861       85.45652
C         34.53084       48.87515       84.49245
O         34.55954       47.90139       83.75256
C         35.21137       48.72296       86.86998
H         36.18272       50.97891       86.31477
H         36.49988       48.36791       85.20298
H         34.39123       49.39695       87.19660
H         34.85002       47.67233       86.89672
H         36.05969       48.81668       87.58099
N         33.46670       49.72707       84.46762
C         32.30937       49.52554       83.59970
C         32.71352       49.47399       82.13735
O         32.45120       48.47149       81.48749
C         31.26981       50.63209       83.82340
H         33.47914       50.54195       85.10142
H         31.82714       48.55969       83.87185
H         31.68766       51.63256       83.58184
H         30.37696       50.45431       83.18625
H         30.94463       50.63551       84.88554
N         33.36075       50.52164       81.55377
C         33.74913       50.53059       80.14116
C         34.76275       49.44443       79.78181
O         34.99364       49.23637       78.59881
C         34.28071       51.92606       79.75371
C         35.61530       52.25388       80.43881
C         35.93620       53.71094       80.32637
O         35.17206       54.60899       80.97271
O         36.92143       54.08573       79.71780
H         33.54027       51.35421       82.13418
H         32.82258       50.34846       79.55244
H         33.50424       52.66556       80.04997
H         34.42325       52.00100       78.65485
H         36.42065       51.63385       79.98709
H         35.56696       52.01960       81.51856
N         35.41618       48.72955       80.74218
C         36.35233       47.65962       80.46721
H         37.34370       47.91773       80.89513
H         35.98885       46.72860       80.95317
H         36.46862       47.46433       79.38159
H         35.26200       48.95339       81.72877
Ca        36.27074       58.07550       80.37164
O         33.49912       56.31207       79.70017
H         34.03583       55.83572       79.01841
H         32.56057       56.09365       79.47854
O         37.07589       56.87512       82.98451
H         37.50095       57.14917       83.83564
H         37.44374       55.97528       82.79805
O         34.51781       58.69300       82.72198
H         33.87419       58.19178       83.28155
H         34.14646       58.62430       81.80797

Ca 1.0



