%chk=holoCaM.loop3.water2.frame278.chk
%nprocshared=20
%mem=10GB
%nosave
#b3lyp/svp scf=(tight,noincore,xqc) Test 
#IOP(5/87=12) Density=Current Pop=(MK,readradii) iop(6/33=2) iop(6/42=6)

holoCaM.loop3.water2.frame278 

   0  1 
C         47.90563       98.62163       59.90434
C         48.86581       97.53916       59.52558
O         49.96087       97.49522       60.06883
H         46.97758       98.16726       60.30961
H         48.34955       99.28556       60.67650
H         47.66030       99.22670       59.00690
N         48.51135       96.61209       58.59288
C         49.39953       95.53061       58.19428
C         50.64104       96.11533       57.53478
O         50.54308       96.68741       56.45776
C         48.65012       94.56057       57.25988
C         49.42809       93.33492       56.89123
O         48.90117       92.49567       56.18238
O         50.67290       93.12349       57.36024
H         47.56812       96.67146       58.17755
H         49.67347       94.96710       59.11597
H         48.34939       95.09115       56.33045
H         47.72787       94.21687       57.77868
N         51.83525       96.07003       58.18573
C         53.05281       96.69868       57.68697
C         53.56077       95.98605       56.44270
O         53.66990       96.61315       55.39858
C         54.10812       96.71842       58.82163
C         55.42256       97.41751       58.45164
C         56.35316       97.47175       59.67412
C         57.69988       98.12004       59.33110
N         58.55988       98.19304       60.51302
H         51.85320       95.63598       59.11994
H         52.82835       97.76267       57.44498
H         54.34127       95.68554       59.14955
H         53.65853       97.25599       59.68713
H         55.21186       98.45375       58.10840
H         55.91860       96.85738       57.62969
H         56.53685       96.44074       60.04950
H         55.85998       98.05906       60.48056
H         57.53260       99.14705       58.93763
H         58.20701       97.51842       58.54431
H         59.47666       98.61834       60.24494
H         58.11267       98.79071       61.24598
H         58.73107       97.23521       60.89703
N         53.92954       94.67614       56.50215
C         54.55117       93.95585       55.39369
C         53.55525       93.42740       54.36501
O         53.99463       92.84959       53.38010
C         55.44524       92.81870       55.94522
C         54.72419       91.72743       56.69655
O         55.43689       90.71517       57.22500
O         53.51246       91.74528       56.83972
H         53.86757       94.21041       57.41256
H         55.24667       94.65227       54.87514
H         56.19105       93.27231       56.63459
H         56.00075       92.35136       55.10474
N         52.20979       93.57840       54.51428
C         51.24140       93.09214       53.54727
C         51.24308       91.58529       53.42557
O         51.39151       91.08044       52.32165
H         51.84025       94.07889       55.33254
H         51.42665       93.56617       52.55834
H         50.22434       93.39451       53.87845
N         51.02827       90.80707       54.52384
C         50.84968       89.36113       54.47534
C         49.45200       88.97538       54.95951
O         49.25185       87.84690       55.38657
C         51.97380       88.63924       55.24629
C         52.20369       89.08722       56.70337
N         53.17183       88.19574       57.33745
O         51.03249       89.14145       57.46615
H         50.93822       91.26422       55.44059
H         50.91565       88.98369       53.43013
H         52.93199       88.81090       54.70791
H         51.77440       87.54534       55.20627
H         52.80632       87.21465       57.31907
H         53.27844       88.46932       58.33855
N         48.40572       89.83463       54.79887
C         47.02266       89.51555       55.11619
C         46.66698       89.49131       56.59271
O         45.48367       89.33939       56.86581
H         48.57279       90.74157       54.34070
H         46.73347       88.56035       54.62637
H         46.39110       90.31744       54.67544
N         47.57969       89.64280       57.59861
C         47.19621       89.71095       59.01075
C         47.74670       90.96297       59.66887
O         48.56822       91.65368       59.08456
C         47.73848       88.49892       59.80632
C         47.09157       87.18396       59.45267
C         47.32222       86.56641       58.21439
C         46.26055       86.54524       60.39160
C         46.73026       85.33421       57.91905
C         45.66599       85.31869       60.09351
C         45.90024       84.70710       58.85521
O         45.33779       83.51881       58.55785
H         48.57840       89.72367       57.36745
H         46.08959       89.73997       59.12052
H         47.54078       88.68097       60.88432
H         48.84081       88.41908       59.69744
H         47.97022       87.02737       57.48459
H         46.06720       86.99695       61.35732
H         46.92140       84.86414       56.96308
H         45.02689       84.84489       60.82816
H         44.76154       83.05402       59.18163
N         47.36905       91.26898       60.94151
C         48.00969       92.28880       61.75844
C         48.55571       91.56810       62.97946
O         47.77064       90.93237       63.67383
C         47.01455       93.39844       62.21896
C         46.19013       93.97839       61.04473
C         47.80399       94.51861       62.93789
C         45.10075       94.95236       61.51361
H         46.62957       90.70007       61.38503
H         48.83023       92.78351       61.19020
H         46.28954       92.94249       62.92990
H         45.66442       93.14528       60.53174
H         46.85382       94.48060       60.30823
H         48.38678       94.11344       63.78624
H         48.51141       95.00773       62.23130
H         47.13812       95.29336       63.36339
H         44.43200       94.45438       62.24964
H         45.53032       95.86380       61.97512
H         44.48788       95.27566       60.64742
N         49.86455       91.65030       63.33725
C         50.36997       91.06048       64.57248
C         50.49064       92.14612       65.61528
O         50.27447       93.29827       65.28800
C         51.69616       90.32335       64.32612
O         52.69343       91.20867       63.88879
H         50.48715       92.25755       62.79116
H         49.64083       90.32379       64.97348
H         51.54455       89.50102       63.58866
H         52.04800       89.84136       65.26182
H         52.71633       91.15411       62.89846
N         50.76440       91.85870       66.91384
C         50.82250       92.89615       67.94078
C         51.94590       93.87813       67.66575
O         51.73007       95.07470       67.79640
C         50.97546       92.27799       69.32791
H         50.90030       90.87163       67.18273
H         49.85519       93.44974       67.95912
H         51.91642       91.69710       69.40764
H         50.96737       93.08029       70.09747
H         50.11087       91.60704       69.52562
N         53.15618       93.43953       67.21625
C         54.25385       94.33396       66.85861
C         53.80620       95.35449       65.82529
O         54.00751       96.54223       66.03666
C         55.43569       93.52326       66.30908
H         53.28518       92.42445       67.08033
H         54.60901       94.86539       67.76955
H         55.14798       92.97243       65.38749
H         56.28594       94.19811       66.07151
H         55.77816       92.78806       67.06853
N         53.15160       94.95203       64.69958
C         52.66384       95.86537       63.66522
C         51.72800       96.90721       64.27457
O         51.98077       98.09192       64.10566
C         52.00425       95.07343       62.49214
C         53.04911       94.14998       61.81232
C         52.59272       93.34931       60.60863
O         51.61873       92.42027       60.68279
O         53.20525       93.45871       59.56412
H         52.97115       93.94343       64.59755
H         53.52933       96.41352       63.22862
H         51.62910       95.79870       61.73785
H         51.14191       94.48432       62.86646
H         53.43934       93.41925       62.54261
H         53.90518       94.78688       61.49714
N         50.67370       96.53879       65.05329
C         49.79228       97.46847       65.73147
H         48.74338       97.27089       65.42748
H         49.87466       97.31454       66.82989
H         50.03680       98.52747       65.50958
H         50.50387       95.54744       65.21723
Ca        51.40278       90.81571       59.04008
O         51.34569       88.58824       60.74616
H         50.64599       88.41083       61.42279
H         51.73480       87.70202       60.54065
O         54.03289       90.23211       60.58278
H         54.15600       89.34317       61.00063
H         54.34195       90.11344       59.65048

Ca 1.0



