%chk=holoCaM.loop2.water2.frame12.chk
%nprocshared=20
%mem=10GB
%nosave
#b3lyp/svp scf=(tight,noincore,xqc) Test 
#IOP(5/87=12) Density=Current Pop=(MK,readradii) iop(6/33=2) iop(6/42=6)

holoCaM.loop2.water2.frame12 

   -2  1 
C         86.11710       10.86679       39.53767
C         86.87927        9.64683       39.10953
O         86.27518        8.62010       38.83621
H         85.02470       10.67052       39.55692
H         86.44291       11.16216       40.55865
H         86.32401       11.70419       38.83883
N         88.23773        9.69449       39.05697
C         89.08752        8.55724       38.70507
C         88.80833        7.42542       39.68458
O         88.96339        7.63226       40.88022
C         90.55279        9.02823       38.77032
C         91.67168        8.12030       38.33363
O         91.54983        7.04078       37.52789
O         92.79534        8.46340       38.65119
H         88.68485       10.59188       39.30607
H         88.86630        8.25266       37.67023
H         90.75089        9.31227       39.82708
H         90.66714        9.95328       38.16171
N         88.34494        6.21888       39.24944
C         87.92318        5.14194       40.13569
C         88.89029        3.96762       40.14067
O         88.70260        3.07953       40.96059
C         86.51544        4.68815       39.72724
H         88.24536        6.06454       38.24541
H         87.88615        5.51392       41.18169
H         86.52758        4.28677       38.68878
H         86.13870        3.89650       40.40777
H         85.81194        5.54770       39.75765
N         89.95328        3.89548       39.28808
C         90.97042        2.84801       39.34396
C         92.37457        3.42983       39.53718
O         93.31502        2.65293       39.62564
C         90.86512        1.94725       38.09920
C         90.96569        2.70083       36.80558
O         92.08512        3.37874       36.49251
O         90.02344        2.69735       36.03008
H         90.06046        4.61214       38.56084
H         90.79520        2.18126       40.21682
H         89.87712        1.43528       38.13494
H         91.64809        1.15891       38.13233
N         92.59375        4.77227       39.66679
C         93.89209        5.35351       39.96560
C         94.91498        5.18130       38.86342
O         95.98579        4.65517       39.12891
H         91.80473        5.43061       39.62708
H         94.27080        4.93180       40.92181
H         93.76092        6.44663       40.11816
N         94.67089        5.66732       37.61450
C         95.65502        5.70149       36.53179
C         95.93055        7.13867       36.06352
O         96.66437        7.31926       35.10211
C         95.19088        4.81141       35.35805
C         93.93475        5.24940       34.63981
N         93.51163        4.55031       33.56289
O         93.30446        6.23036       35.00485
H         93.74450        6.06884       37.43379
H         96.62383        5.27769       36.87582
H         95.04318        3.77526       35.73289
H         96.01061        4.78397       34.60728
H         94.03211        3.72307       33.23556
H         92.67025        4.84278       33.04701
N         95.38670        8.20874       36.70985
C         95.55707        9.59793       36.32238
C         94.88156        9.92784       35.00962
O         95.50913       10.56045       34.17749
H         94.83549        8.05114       37.55701
H         96.63412        9.87320       36.31111
H         95.05996       10.22725       37.09358
N         93.56996        9.60550       34.81103
C         92.75473        9.98516       33.64112
C         91.26273        9.71633       33.90493
O         90.92206        9.09969       34.90718
C         93.16769        9.27574       32.30886
C         94.44533        9.77691       31.61996
O         93.21233        7.88328       32.47208
H         93.11596        9.11628       35.59649
H         92.82682       11.08812       33.51667
H         92.38086        9.50363       31.55905
H         94.04367        7.67363       32.97266
H         94.40013       10.87913       31.48436
H         95.36447        9.48841       32.15786
H         94.52412        9.30860       30.61581
N         90.30476       10.21898       33.06178
C         88.87041       10.10559       33.32907
C         88.15787        9.41076       32.16613
O         88.08136        9.97533       31.08353
C         88.27524       11.52163       33.61991
C         89.03635       12.19639       34.79715
C         86.76731       11.43474       33.92812
C         88.60467       13.63837       35.07723
H         90.59827       10.76782       32.23905
H         88.71013        9.50206       34.24154
H         88.41194       12.14980       32.71134
H         90.11910       12.24277       34.55509
H         88.91584       11.59357       35.72432
H         86.59001       10.83475       34.84513
H         86.32451       12.44076       34.06635
H         86.21879       10.97639       33.08414
H         88.73670       14.26273       34.16811
H         87.55146       13.69452       35.41664
H         89.23644       14.05932       35.88810
N         87.60569        8.17189       32.33612
C         86.83268        7.45481       31.31613
C         85.46319        8.09444       31.11120
O         85.15368        9.06764       31.77410
C         86.60329        5.99018       31.76195
C         87.88275        5.23368       31.94596
O         88.64395        5.07250       31.00537
O         88.17864        4.69944       33.14508
H         87.76114        7.70098       33.23464
H         87.39867        7.44667       30.35863
H         86.01815        5.43824       30.99892
H         86.03074        5.98171       32.71556
N         84.57499        7.57563       30.21276
C         83.21387        8.08120       30.04230
C         82.35492        7.85413       31.29855
O         81.83333        8.84661       31.78750
C         82.57628        7.49473       28.75898
C         81.15980        7.96664       28.52370
C         80.87237        9.33251       28.35186
C         80.10981        7.03292       28.45787
C         79.55880        9.75305       28.11949
C         78.79907        7.45811       28.22396
C         78.52354        8.81685       28.05445
H         84.88233        6.79224       29.61757
H         83.27520        9.17763       29.85843
H         82.59937        6.39485       28.77144
H         83.19621        7.79697       27.88748
H         81.66167       10.07176       28.39220
H         80.30392        5.97491       28.58453
H         79.34355       10.80529       27.98618
H         77.99717        6.73293       28.17160
H         77.50819        9.14366       27.87086
N         82.14592        6.62991       31.89777
C         81.35311        6.43632       33.11541
C         81.73874        7.38487       34.22968
O         80.88155        8.00411       34.84276
C         81.70566        5.00352       33.55575
C         81.92626        4.32073       32.23576
C         82.72883        5.37016       31.47294
H         80.27183        6.52008       32.86713
H         82.69500        4.97848       34.06950
H         80.96208        4.52998       34.23164
H         82.41030        3.32211       32.29159
H         80.92995        4.21363       31.75001
H         83.79860        5.36334       31.76241
H         82.60986        5.13646       30.40661
N         83.05444        7.53560       34.51915
C         83.59380        8.37227       35.57804
C         83.18366        9.81863       35.38248
O         82.68380       10.43175       36.31507
C         85.12615        8.25778       35.57039
C         85.61394        6.81287       35.83208
C         87.10255        6.73499       35.79113
O         87.77022        7.74177       35.63591
O         87.73520        5.56799       35.97370
H         83.71593        7.02684       33.91603
H         83.23384        8.01829       36.57033
H         85.54235        8.92710       36.35404
H         85.51340        8.59458       34.58264
H         85.23595        6.10263       35.07274
H         85.26620        6.47123       36.83084
N         83.34612       10.41868       34.17481
C         82.97648       11.79032       33.91728
H         81.90043       11.94408       34.14272
H         83.59639       12.46996       34.53763
H         83.15074       12.02735       32.84505
H         83.72118        9.86976       33.39775
Ca        89.87660        6.01934       36.43970
O         90.59199        6.86708       32.39466
H         91.10172        6.45594       31.65175
H         90.48508        6.13839       33.05564
O         90.65847        3.20593       33.33813
H         91.22832        2.43091       33.57183
H         90.49963        3.11666       32.36575

Ca 1.0



