%chk=holoCaM.loop3.water2.frame45.chk
%nprocshared=20
%mem=10GB
%nosave
#b3lyp/svp scf=(tight,noincore,xqc) Test 
#IOP(5/87=12) Density=Current Pop=(MK,readradii) iop(6/33=2) iop(6/42=6)

holoCaM.loop3.water2.frame45 

   0  1 
C          8.35027       59.78173       22.28553
C          7.45543       60.40347       23.31956
O          7.18482       59.76749       24.32593
H          9.33411       59.53134       22.72896
H          7.87154       58.85432       21.90191
H          8.50834       60.46275       21.42183
N          6.90378       61.62682       23.09420
C          5.86884       62.22822       23.92362
C          4.56207       61.89537       23.25158
O          3.94952       62.75587       22.63702
C          6.13205       63.74683       24.06197
C          5.01744       64.52969       24.71734
O          4.55073       64.27305       25.96106
O          4.52523       65.45491       24.09370
H          7.10669       62.08676       22.19274
H          5.83453       61.79299       24.94491
H          6.29709       64.17676       23.04842
H          7.05551       63.91545       24.63236
N          4.10893       60.60799       23.27975
C          2.88539       60.20247       22.60540
C          1.63755       60.64782       23.35918
O          0.55161       60.47597       22.82275
C          2.82475       58.68110       22.37847
C          4.10019       58.12219       21.71863
C          3.90237       56.71914       21.12976
C          3.35235       55.68732       22.12548
N          3.20478       54.38409       21.47897
H          4.67305       59.89761       23.76655
H          2.89788       60.66578       21.59257
H          1.95503       58.49178       21.71051
H          2.65780       58.15159       23.34193
H          4.92461       58.10233       22.46390
H          4.41154       58.78002       20.87813
H          4.88251       56.37106       20.73589
H          3.19379       56.79658       20.27707
H          2.35259       56.01355       22.48688
H          4.03300       55.59692       23.00010
H          4.14036       54.02449       21.18119
H          2.77758       53.71079       22.15472
H          2.57787       54.46570       20.64484
N          1.70819       61.24343       24.58905
C          0.54538       61.78894       25.28051
C          0.47253       63.30177       25.08187
O         -0.49489       63.90756       25.52033
C          0.51768       61.32210       26.75413
C          1.73726       61.70835       27.54416
O          2.45527       60.84700       28.02696
O          2.02995       63.00108       27.74927
H          2.62731       61.41107       25.02212
H         -0.38863       61.40384       24.81595
H          0.43197       60.21307       26.76132
H         -0.38063       61.73374       27.26250
N          1.40958       63.95791       24.33263
C          1.29842       65.33204       23.88597
C          1.39394       66.37598       24.96750
O          1.24140       67.54054       24.62563
H          2.20373       63.44338       23.95658
H          0.33324       65.44440       23.34709
H          2.10810       65.53862       23.15184
N          1.61572       66.07550       26.28094
C          1.55486       67.10989       27.30787
C          2.68002       68.13650       27.19114
O          2.57468       69.18675       27.80787
C          1.47140       66.50267       28.72413
C          2.79549       66.02689       29.27177
N          3.26093       66.52399       30.44241
O          3.44946       65.19273       28.66667
H          1.73919       65.09719       26.56200
H          0.58125       67.62373       27.14121
H          0.74177       65.66230       28.71528
H          1.06588       67.27760       29.40795
H          2.71933       67.22308       30.97263
H          4.16080       66.20594       30.82938
N          3.79323       67.88822       26.43802
C          4.86694       68.84416       26.22054
C          6.20106       68.39120       26.78199
O          7.18134       69.07661       26.52788
H          3.89548       66.97659       25.97655
H          4.63310       69.83541       26.66585
H          4.96967       68.98477       25.12345
N          6.31637       67.31184       27.61256
C          7.56945       66.94540       28.28007
C          7.82844       65.45306       28.17927
O          6.89800       64.71684       27.88656
C          7.42075       67.32357       29.76814
C          7.16528       68.80562       29.90171
C          5.85720       69.29144       30.07767
C          8.22802       69.71602       29.80491
C          5.61757       70.66646       30.14447
C          7.98855       71.09085       29.88974
C          6.68044       71.57077       30.05352
O          6.43341       72.89447       30.11972
H          5.46506       66.79833       27.88146
H          8.43013       67.49240       27.83618
H          8.30323       67.03354       30.37894
H          6.54886       66.75916       30.16973
H          5.01939       68.60969       30.13429
H          9.24099       69.35888       29.66820
H          4.60354       71.02899       30.26009
H          8.81907       71.78150       29.82031
H          7.13965       73.55320       30.05668
N          9.06578       64.92583       28.44292
C          9.29350       63.48239       28.54479
C         10.04544       63.21110       29.83508
O         11.19052       63.63318       29.94183
C         10.11669       62.88459       27.35767
C          9.70565       63.48354       26.00056
C          9.92601       61.34861       27.35611
C         10.56473       62.99595       24.82883
H          9.85756       65.56737       28.60475
H          8.30560       62.96965       28.55560
H         11.19194       63.13588       27.49120
H          9.83178       64.58709       26.04369
H          8.64854       63.24320       25.81469
H         10.20757       60.90829       28.33181
H          8.85827       61.09942       27.16311
H         10.53951       60.84960       26.58256
H         10.26516       63.52949       23.90293
H         11.63848       63.20718       25.02478
H         10.43194       61.91117       24.64561
N          9.48065       62.52944       30.86573
C         10.23418       62.22409       32.08032
C         11.28068       61.15044       31.80407
O         11.32562       60.62326       30.70486
C          9.27712       61.79050       33.20525
O          8.51904       60.68526       32.81070
H          8.49719       62.23501       30.78479
H         10.74283       63.14786       32.43504
H          8.59033       62.63695       33.42558
H          9.85641       61.54642       34.12315
H          7.96381       60.43126       33.59244
N         12.16168       60.77165       32.77031
C         13.09082       59.65528       32.60678
C         12.31251       58.35786       32.48667
O         12.54607       57.59262       31.56202
C         14.03063       59.56536       33.81418
H         12.14835       61.27718       33.66906
H         13.73322       59.81194       31.71023
H         13.46243       59.41620       34.75652
H         14.73736       58.71696       33.68357
H         14.62380       60.50066       33.89774
N         11.33665       58.07770       33.39674
C         10.51416       56.87253       33.39271
C          9.82595       56.66661       32.05761
O          9.95662       55.59804       31.47718
C          9.45451       56.97754       34.50100
H         11.15413       58.78328       34.12784
H         11.15423       55.98901       33.60985
H          8.82707       56.06227       34.53071
H          9.94623       57.10142       35.48935
H          8.79346       57.85626       34.33165
N          9.08417       57.66476       31.50860
C          8.36869       57.54896       30.24588
C          9.32904       57.20442       29.11432
O          9.05826       56.28540       28.35491
C          7.64726       58.87893       29.90960
C          6.61669       58.66201       28.79156
C          6.17184       59.94351       28.15473
O          5.62214       60.95397       28.84860
O          6.30965       60.07475       26.95069
H          9.03470       58.55089       32.01950
H          7.59494       56.75607       30.35501
H          8.40888       59.63732       29.62296
H          7.09391       59.27181       30.79187
H          5.74596       58.10771       29.20703
H          7.05654       58.04260       27.98146
N         10.48428       57.91067       28.96539
C         11.44703       57.69838       27.90598
H         12.40873       57.35580       28.34304
H         11.09945       56.95237       27.16300
H         11.62426       58.66116       27.38147
H         10.70994       58.62948       29.65888
Ca         5.04250       62.60489       27.41168
O          6.28988       63.65607       30.67951
H          6.72125       64.24671       31.34652
H          6.18849       62.78788       31.14519
O          3.39033       63.13582       30.74340
H          2.40145       63.17390       30.72606
H          3.61206       62.76668       31.63455

Ca 1.0



