%chk=holoCaM-CaMKII.loop2.water2.frame235.chk
%nprocshared=20
%mem=10GB
%nosave
#b3lyp/svp scf=(tight,noincore,xqc) Test 
#IOP(5/87=12) Density=Current Pop=(MK,readradii) iop(6/33=2) iop(6/42=6)

holoCaM-CaMKII.loop2.water2.frame235 

   -2  1 
C         89.12815       30.07275       45.38333
C         89.31716       29.57756       46.79024
O         88.34753       29.17711       47.41637
H         90.09441       30.38146       44.92871
H         88.70257       29.25809       44.75941
H         88.43990       30.94185       45.37231
N         90.56020       29.54883       47.34088
C         90.85066       28.98859       48.65415
C         90.19127       29.76051       49.79004
O         90.42868       30.95138       49.93307
C         92.37581       28.94451       48.86223
C         92.73570       28.29844       50.16153
O         93.48811       28.96444       51.05704
O         92.34348       27.17102       50.41144
H         91.34989       29.88505       46.76754
H         90.49320       27.93452       48.66182
H         92.80180       29.97025       48.82610
H         92.83536       28.34989       48.04536
N         89.39781       29.09528       50.67750
C         88.78644       29.68631       51.86209
C         89.24986       29.00589       53.15740
O         88.78193       29.41189       54.21275
C         87.26395       29.52689       51.74071
H         89.22842       28.09738       50.51202
H         89.02879       30.76851       51.93011
H         86.99197       28.44769       51.70170
H         86.74441       29.98711       52.60810
H         86.89739       30.01327       50.81263
N         90.09563       27.92810       53.15622
C         90.34717       27.10230       54.34228
C         91.80690       26.70484       54.57036
O         92.07525       26.08102       55.58876
C         89.46902       25.83293       54.24005
C         89.70003       24.97523       53.00538
O         90.64341       25.29280       52.08772
O         89.00994       23.98456       52.83887
H         90.44429       27.59122       52.25636
H         90.02793       27.65196       55.25612
H         88.40748       26.16366       54.22800
H         89.61347       25.21124       55.15101
N         92.79883       26.99639       53.68594
C         94.19118       26.61434       53.88021
C         94.48120       25.11537       53.85994
O         95.64590       24.78009       54.02647
H         92.57716       27.54819       52.85468
H         94.54887       27.04053       54.84257
H         94.79738       27.06988       53.06598
N         93.52558       24.15129       53.66961
C         93.83909       22.71682       53.69456
C         94.63201       22.22605       52.46818
O         94.89006       21.03289       52.38666
C         92.56668       21.85292       53.92577
C         91.57283       21.79946       52.80083
N         90.51124       20.96664       52.86818
O         91.72584       22.48702       51.81448
H         92.54323       24.42988       53.56676
H         94.45233       22.52268       54.60197
H         92.04288       22.20056       54.84254
H         92.90199       20.80871       54.10348
H         90.36046       20.36608       53.69054
H         89.85216       20.90432       52.08070
N         95.07857       23.07567       51.49649
C         95.87862       22.65989       50.35230
C         95.07569       22.11274       49.18516
O         95.69044       21.83683       48.16444
H         94.93564       24.08335       51.60506
H         96.67215       21.94804       50.67156
H         96.39670       23.56050       49.95682
N         93.72329       21.92443       49.24030
C         92.93294       21.41702       48.12042
C         91.67530       22.29997       47.85799
O         91.96446       23.65970       48.01204
C         92.50645       19.95658       48.41832
C         93.72409       19.03339       48.51661
O         91.78584       19.88765       49.62256
H         93.23581       22.10520       50.11765
H         93.54722       21.42051       47.19149
H         91.88998       19.54390       47.59029
H         90.86769       20.21221       49.43109
H         94.29644       19.05310       47.56380
H         94.39474       19.33985       49.34653
H         93.39164       17.99067       48.70310
N         91.17552       22.07609       46.48963
C         89.84369       22.64706       46.22162
C         88.75897       21.81194       46.90068
O         88.70466       20.60931       46.68266
C         89.61178       22.72955       44.67661
C         90.75480       23.53785       44.00011
C         88.24122       23.36636       44.36861
C         90.62352       23.66033       42.47804
H         91.18790       21.07013       46.20942
H         89.80579       23.69365       46.59550
H         89.61751       21.69922       44.25549
H         91.72127       23.02738       44.19960
H         90.80747       24.56087       44.43204
H         88.02857       23.37332       43.28138
H         87.42813       22.77459       44.82372
H         88.19669       24.40781       44.75207
H         91.51306       24.18662       42.07208
H         90.55915       22.65591       42.00916
H         89.73483       24.26011       42.19410
N         87.81622       22.41299       47.68110
C         86.68114       21.71274       48.27959
C         85.45623       21.89940       47.40653
O         85.55025       22.57568       46.39843
C         86.40589       22.26123       49.69368
C         87.56163       22.05405       50.62343
O         88.64751       22.55697       50.38377
O         87.39209       21.33155       51.74680
H         87.83648       23.43554       47.76045
H         86.88045       20.61940       48.33064
H         85.51956       21.75178       50.12711
H         86.18129       23.34915       49.63633
N         84.27334       21.28946       47.69630
C         83.11319       21.40042       46.81793
C         82.61871       22.84842       46.70186
O         82.55881       23.31888       45.57487
C         82.00921       20.39790       47.22378
C         80.85196       20.39530       46.25347
C         79.56150       20.74161       46.68828
C         81.04782       20.03360       44.90748
C         78.48858       20.72929       45.79188
C         79.97233       20.02291       44.01552
C         78.69364       20.37037       44.45704
H         84.21597       20.68486       48.53013
H         83.44123       21.07248       45.80583
H         81.64743       20.59167       48.24458
H         82.44246       19.37411       47.24108
H         79.38485       21.02151       47.71938
H         82.02940       19.75400       44.54673
H         77.49714       20.99669       46.13298
H         80.13072       19.74224       42.98216
H         77.86172       20.35939       43.76514
N         82.27871       23.64042       47.77445
C         81.87668       25.04383       47.65961
C         82.81786       25.87313       46.80750
O         82.36905       26.63034       45.95881
C         81.95437       25.55845       49.10710
C         81.56153       24.33730       49.89070
C         82.34225       23.24322       49.16931
H         80.83265       25.09630       47.27773
H         83.01155       25.76905       49.39233
H         81.35718       26.47447       49.30317
H         81.74595       24.39123       50.98468
H         80.47355       24.17102       49.71641
H         83.40865       23.20925       49.48179
H         81.83758       22.29540       49.40538
N         84.15719       25.75953       47.00572
C         85.17649       26.54141       46.31636
C         85.07081       26.33299       44.81444
O         84.96097       27.30779       44.08422
C         86.57991       26.15765       46.84886
C         86.70622       26.41201       48.37517
C         88.01587       25.97972       48.96626
O         88.16131       25.98821       50.30383
O         88.93066       25.58058       48.26689
H         84.45757       25.05165       47.68932
H         85.02926       27.62219       46.53859
H         87.35624       26.74828       46.31516
H         86.75529       25.08314       46.63997
H         85.94118       25.83833       48.92858
H         86.54532       27.48737       48.60165
N         85.03973       25.07936       44.28907
C         84.87664       24.81949       42.87676
H         83.92969       25.27385       42.51452
H         85.73634       25.23273       42.31097
H         84.82539       23.72246       42.70163
H         85.09336       24.27486       44.91687
Ca        91.12996       24.33047       50.06010
O         91.78632       26.21827       46.98535
H         92.26105       26.58814       46.20057
H         90.86724       26.05057       46.66151
O         93.94278       25.11295       49.53119
H         94.15882       25.42537       48.61894
H         94.40561       25.75086       50.12997

Ca 1.0



