%chk=holoCaM-CaMKII.loop1.water2.frame491.chk
%nprocshared=20
%mem=10GB
%nosave
#b3lyp/svp scf=(tight,noincore,xqc) Test 
#IOP(5/87=12) Density=Current Pop=(MK,readradii) iop(6/33=2) iop(6/42=6)

holoCaM-CaMKII.loop1.water2.frame491 

   0  1 
C         89.79743       95.56797       99.22695
C         90.44700       96.15501      100.44743
O         90.57733       97.36407      100.50965
H         88.76870       95.97047       99.12006
H         90.39079       95.83865       98.32808
H         89.73863       94.46042       99.28606
N         90.87587       95.34742      101.45711
C         91.54039       95.80083      102.68374
C         92.86457       96.50397      102.36933
O         93.90039       95.85653      102.30433
C         91.71585       94.56510      103.60284
C         92.59781       94.74949      104.80236
O         92.37451       95.67706      105.75015
O         93.55804       94.00916      104.93111
H         90.70764       94.33533      101.34124
H         90.88540       96.51924      103.22441
H         92.16511       93.74057      103.00418
H         90.71314       94.22138      103.93153
N         92.88048       97.84981      102.13353
C         94.07612       98.60631      101.77047
C         95.06689       98.80106      102.91436
O         96.16429       99.25269      102.61451
C         93.68717      100.02718      101.27761
C         92.90020      100.08388       99.95524
C         93.75907       99.64374       98.75500
C         93.10378       99.93871       97.39558
N         91.88512       99.16101       97.17471
H         91.98439       98.34946      102.14821
H         94.59904       98.06236      100.95592
H         94.59937      100.64677      101.13039
H         93.08526      100.51793      102.07567
H         92.61869      101.14827       99.79780
H         91.96590       99.49291      100.02474
H         94.00754       98.56410       98.82222
H         94.70853      100.22245       98.77936
H         93.83758       99.68661       96.59778
H         92.87850      101.02584       97.31550
H         91.52010       99.37696       96.21863
H         92.09758       98.13868       97.23065
H         91.15060       99.41516       97.87211
N         94.76135       98.58189      104.23018
C         95.70247       98.90565      105.31215
C         96.11557       97.69718      106.14227
O         96.92126       97.86350      107.04799
C         95.16030      100.06708      106.17564
C         93.90778       99.79218      106.96350
O         93.39479      100.77258      107.73102
O         93.35771       98.70361      106.93457
H         93.82298       98.23584      104.47739
H         96.65368       99.29118      104.88525
H         94.96859      100.93453      105.50626
H         95.95029      100.37144      106.89672
N         95.67538       96.44305      105.85271
C         96.17351       95.25328      106.51946
C         95.77976       95.14657      107.97116
O         96.65219       94.95956      108.80707
H         95.02281       96.29985      105.07050
H         97.27780       95.19753      106.40644
H         95.75235       94.36216      106.01309
N         94.46669       95.17111      108.32826
C         93.98281       94.83589      109.66296
C         93.09619       93.58808      109.63787
O         92.73490       93.12029      110.70825
C         93.30746       96.05339      110.33525
C         92.10420       96.63768      109.64480
O         91.65755       96.16186      108.61610
O         91.51665       97.72461      110.17793
H         93.78069       95.38647      107.60070
H         94.84411       94.56803      110.31242
H         94.06661       96.86078      110.41041
H         93.00414       95.77311      111.36723
N         92.71886       92.98193      108.46956
C         91.97044       91.73721      108.40744
C         90.53213       91.94091      107.99706
O         89.85426       90.94314      107.78793
H         92.96483       93.39274      107.56084
H         91.96151       91.21091      109.38493
H         92.48236       91.07056      107.67885
N         89.96683       93.18151      107.93643
C         88.55647       93.40314      107.64253
C         88.37985       94.36314      106.48669
O         89.34569       94.94819      106.01951
C         87.82552       93.94060      108.89998
C         87.82104       92.91888      110.04599
O         88.37248       95.16607      109.32182
H         90.53870       94.00523      108.16189
H         88.07100       92.44805      107.34358
H         86.75887       94.12273      108.64886
H         89.23048       94.98368      109.78738
H         87.32248       91.98284      109.71612
H         88.85488       92.67907      110.37306
H         87.26134       93.33063      110.91239
N         87.14371       94.53875      105.95241
C         86.83379       95.43687      104.84928
C         85.71339       96.35718      105.30895
O         84.70765       95.87590      105.81592
C         86.46291       94.60572      103.58785
C         87.68518       93.73638      103.17376
C         86.04882       95.53489      102.42668
C         87.40574       92.74835      102.04305
H         86.36830       93.96989      106.32967
H         87.71916       96.05330      104.56789
H         85.60652       93.94188      103.83906
H         88.01902       93.12346      104.03675
H         88.52804       94.39813      102.87688
H         85.17217       96.15217      102.70873
H         86.88551       96.21210      102.14771
H         85.74728       94.95405      101.53297
H         87.12979       93.26308      101.10230
H         88.32527       92.15666      101.84464
H         86.59539       92.05068      102.34206
N         85.81505       97.70012      105.13196
C         84.81777       98.66802      105.57379
C         83.97952       99.11672      104.39924
O         84.21942       98.68348      103.28587
C         85.52514       99.88439      106.23430
C         86.24554       99.46513      107.52135
O         86.42521      100.44957      105.30877
H         86.61386       98.05167      104.59444
H         84.11227       98.20355      106.29788
H         84.77402      100.65473      106.51220
H         87.08584      101.00966      105.79303
H         87.01793       98.70338      107.29720
H         86.73365      100.34888      107.98771
H         85.51632       99.05269      108.24923
N         82.94069       99.97051      104.58756
C         82.11606      100.48568      103.49870
C         82.97631      101.34630      102.57600
O         82.94693      101.14741      101.37047
C         80.91402      101.27114      104.07854
C         79.97005      101.76068      102.97827
O         80.17166      100.42546      104.92453
H         82.73592      100.27111      105.55255
H         81.68533       99.63183      102.92657
H         81.27422      102.16415      104.64272
H         80.48868      100.57090      105.85367
H         79.10782      102.29067      103.43606
H         80.48768      102.46017      102.29071
H         79.58075      100.89764      102.39492
N         83.83189      102.26706      103.10909
C         84.77880      103.08584      102.34491
C         85.60009      102.23900      101.38372
O         85.61044      102.51895      100.19318
C         85.71992      103.80605      103.35312
C         86.88717      104.58712      102.72110
C         87.79340      105.17061      103.82172
C         89.08848      105.80317      103.28388
N         88.83834      106.96617      102.43351
H         83.85255      102.34266      104.13830
H         84.22440      103.84447      101.74985
H         86.16707      103.03559      104.02042
H         85.11430      104.48972      103.98751
H         86.49046      105.39049      102.06633
H         87.50242      103.89164      102.11048
H         88.10471      104.34323      104.49788
H         87.22809      105.91389      104.42496
H         89.67155      105.04198      102.71875
H         89.70449      106.12231      104.15445
H         88.29681      107.68768      102.96213
H         89.75695      107.37633      102.14759
H         88.32160      106.68746      101.56989
N         86.33636      101.20274      101.85270
C         87.22652      100.38331      101.03501
C         86.46220       99.67947       99.92671
O         86.86132       99.79338       98.77628
C         87.98572       99.39981      101.95060
C         88.93341      100.19596      102.87925
C         89.60246       99.34586      103.90503
O         90.81815       99.31460      103.98195
O         88.86259       98.68906      104.81146
H         86.26195      100.99972      102.85857
H         87.99765      101.02649      100.55317
H         88.59230       98.69696      101.34487
H         87.25066       98.80431      102.53197
H         88.38125      100.97170      103.44415
H         89.70061      100.70901      102.25848
N         85.32733       98.98023      100.19208
C         84.52145       98.32681       99.18116
H         83.51547       98.79833       99.15484
H         84.96906       98.40050       98.16840
H         84.40519       97.25427       99.44089
H         84.99053       98.94006      101.15452
Ca        90.81379       97.26266      105.96821
O         89.02618       98.20191      108.79749
H         88.92908       97.63224      109.59942
H         88.79257       99.10774      109.11986
O         90.01632      100.51295      107.05539
H         90.09386      100.92630      107.95163
H         90.93236      100.55243      106.68345

Ca 1.0



