%chk=holoCaM-CaMKII.loop1.water2.frame211.chk
%nprocshared=20
%mem=10GB
%nosave
#b3lyp/svp scf=(tight,noincore,xqc) Test 
#IOP(5/87=12) Density=Current Pop=(MK,readradii) iop(6/33=2) iop(6/42=6)

holoCaM-CaMKII.loop1.water2.frame211 

   0  1 
C         30.14880       62.11311       40.98027
C         29.38748       62.64208       42.15474
O         28.79523       63.70699       42.05805
H         31.21927       62.00519       41.25505
H         29.74203       61.12086       40.69353
H         30.06637       62.80334       40.11444
N         29.36487       61.93505       43.31654
C         28.64985       62.38582       44.50309
C         29.24883       63.71215       44.95046
O         30.43316       63.74407       45.25586
C         28.75552       61.29576       45.59003
C         27.87144       61.48385       46.78163
O         27.06986       62.40173       46.85044
O         27.94286       60.57972       47.77402
H         29.87500       61.03775       43.34614
H         27.57934       62.50026       44.23356
H         29.81133       61.21528       45.92719
H         28.45728       60.31974       45.14802
N         28.50955       64.86023       44.92796
C         29.08587       66.19012       45.13056
C         28.59228       66.85425       46.41631
O         29.16795       67.86069       46.80461
C         28.88107       66.97719       43.81528
C         29.47459       68.39357       43.76528
C         29.65030       68.90010       42.31420
C         28.37508       68.87490       41.45147
N         28.66355       69.33004       40.08911
H         27.51329       64.80030       44.67597
H         30.18385       66.09613       45.27842
H         27.79953       67.03186       43.56414
H         29.38735       66.37058       43.03074
H         30.49122       68.38610       44.21408
H         28.83382       69.08275       44.35667
H         30.41062       68.25814       41.81688
H         30.05173       69.93654       42.34779
H         27.59458       69.52332       41.90481
H         27.98247       67.83704       41.39068
H         28.98980       70.32340       40.09922
H         29.39884       68.72501       39.65419
H         27.79531       69.26222       39.51010
N         27.61316       66.29230       47.18257
C         27.31258       66.68138       48.56345
C         27.48953       65.48190       49.50706
O         27.22728       65.63547       50.69202
C         25.90592       67.31690       48.68323
C         24.86767       66.54371       47.94013
O         24.70250       65.23002       48.15498
O         24.29349       67.07199       47.00148
H         27.08762       65.49119       46.80743
H         28.02155       67.45663       48.92861
H         25.94921       68.33360       48.23167
H         25.62497       67.44447       49.75061
N         27.99858       64.28338       49.08070
C         28.29357       63.17377       49.97666
C         27.08846       62.44806       50.55227
O         27.30924       61.56312       51.36680
H         28.29928       64.16993       48.10449
H         28.92987       63.55336       50.80447
H         28.89234       62.41602       49.42734
N         25.80121       62.73195       50.19469
C         24.64902       62.05712       50.80224
C         24.61004       60.54617       50.56261
O         23.88679       59.86722       51.27871
C         23.31567       62.71506       50.37338
C         23.02505       62.68565       48.89308
O         23.80918       62.19520       48.09837
O         21.88733       63.24091       48.43666
H         25.63512       63.47424       49.50799
H         24.74283       62.20567       51.90127
H         23.33158       63.78026       50.68840
H         22.47808       62.21338       50.90422
N         25.34629       59.95265       49.58269
C         25.43105       58.51365       49.37578
C         24.89544       58.06993       48.02929
O         25.11726       56.92236       47.67479
H         25.88977       60.54819       48.94964
H         24.90014       57.93817       50.16479
H         26.50696       58.24120       49.43270
N         24.13819       58.89578       47.25077
C         23.58596       58.51219       45.95338
C         23.98394       59.52315       44.88496
O         24.63081       60.51491       45.18624
C         22.04575       58.37959       46.06110
C         21.65657       57.17765       46.92823
O         21.50057       59.55144       46.60671
H         23.89649       59.82732       47.60376
H         23.99343       57.53103       45.62403
H         21.62372       58.20406       45.04580
H         20.52164       59.52144       46.44599
H         22.06092       56.24337       46.48263
H         22.04520       57.28727       47.96178
H         20.55032       57.08844       46.97119
N         23.64510       59.28645       43.58316
C         24.00613       60.15308       42.46585
C         22.72884       60.58201       41.74679
O         21.94283       59.71911       41.38534
C         24.99666       59.39457       41.52898
C         26.28341       59.01779       42.32157
C         25.35733       60.25811       40.30179
C         27.25409       58.11837       41.55387
H         23.13939       58.41744       43.35840
H         24.53414       61.05103       42.82090
H         24.50327       58.46211       41.17509
H         26.00713       58.45247       43.23597
H         26.81498       59.94261       42.64012
H         26.02444       59.71311       39.60510
H         24.44948       60.52131       39.72205
H         25.86274       61.19487       40.62008
H         28.12027       57.87651       42.20660
H         26.75118       57.16864       41.27320
H         27.64968       58.61231       40.64504
N         22.48520       61.90122       41.46375
C         21.28747       62.35681       40.74621
C         21.62050       62.70521       39.30908
O         22.77236       62.64913       38.92746
C         20.63275       63.60535       41.41485
C         20.18720       63.39646       42.85661
O         21.45126       64.74665       41.31351
H         23.21184       62.59103       41.69534
H         20.53624       61.53914       40.70965
H         19.69988       63.82826       40.85812
H         22.24452       64.61412       41.89330
H         19.57494       64.26796       43.17774
H         19.57535       62.47612       42.94807
H         21.06783       63.33139       43.51400
N         20.63078       63.09357       38.45584
C         20.86484       63.57315       37.09501
C         21.71900       64.83330       37.10582
O         22.60962       64.94444       36.27455
C         19.52263       63.84094       36.36810
C         18.75466       62.52750       36.14216
O         18.74234       64.74627       37.10811
H         19.66266       63.07656       38.80472
H         21.40005       62.79638       36.50330
H         19.75108       64.27787       35.36835
H         17.94369       64.95976       36.55830
H         19.37050       61.82808       35.53657
H         18.49732       62.03394       37.10192
H         17.81412       62.72526       35.58672
N         21.53388       65.80185       38.05006
C         22.34461       67.01749       38.13892
C         23.82245       66.66686       38.19972
O         24.59863       67.17246       37.40203
C         21.89878       67.84944       39.37126
C         22.55967       69.23794       39.43396
C         21.90572       70.12016       40.51277
C         22.46255       71.55231       40.47450
N         21.75376       72.42142       41.41531
H         20.79904       65.65094       38.75894
H         22.15855       67.63417       37.23221
H         22.08457       67.29628       40.31946
H         20.80195       68.00668       39.27640
H         22.40863       69.73600       38.45234
H         23.65170       69.14124       39.62227
H         22.05977       69.67838       41.52213
H         20.81292       70.17147       40.31248
H         22.33747       71.96663       39.44904
H         23.54773       71.54192       40.71849
H         20.73632       72.45823       41.17291
H         21.87071       72.07269       42.39382
H         22.14455       73.38933       41.34875
N         24.25887       65.75574       39.10472
C         25.64664       65.31541       39.23607
C         26.14397       64.68011       37.94581
O         27.12835       65.15841       37.39923
C         25.75109       64.36503       40.44947
C         25.46532       65.18204       41.72777
C         25.32522       64.39677       42.98563
O         25.47626       63.19078       43.01990
O         24.99804       65.07165       44.09666
H         23.54608       65.34114       39.72327
H         26.29857       66.19309       39.44908
H         26.76309       63.91649       40.52246
H         25.01441       63.54028       40.33296
H         24.51175       65.73572       41.63089
H         26.27610       65.92878       41.86717
N         25.50052       63.62694       37.37771
C         25.91469       63.04276       36.12078
H         26.93932       62.62639       36.21053
H         25.21818       62.22401       35.83700
H         25.89095       63.81294       35.32013
H         24.67388       63.24016       37.83312
Ca        24.67153       64.24814       46.15033
O         22.02942       61.94960       45.40458
H         21.31539       62.11445       46.06972
H         22.41363       62.84218       45.22515
O         21.73560       65.54966       45.22498
H         22.48281       65.71339       45.85026
H         21.06031       65.08020       45.77543

Ca 1.0



