%chk=holoCaM.loop3.water3.frame249.chk
%nprocshared=20
%mem=10GB
%nosave
#b3lyp/svp scf=(tight,noincore,xqc) Test 
#IOP(5/87=12) Density=Current Pop=(MK,readradii) iop(6/33=2) iop(6/42=6)

holoCaM.loop3.water3.frame249 

   0  1 
C         54.11048       84.58836       53.71702
C         54.33274       85.91150       54.37244
O         53.47430       86.77796       54.26936
H         53.13548       84.57833       53.18411
H         54.92797       84.38461       52.99782
H         54.09323       83.79859       54.49832
N         55.45432       86.12583       55.11606
C         55.61870       87.34261       55.88603
C         55.77955       88.56015       54.97999
O         56.77214       88.66397       54.27376
C         56.77534       87.21373       56.91623
C         56.65265       88.26795       57.98302
O         55.64963       89.14786       57.87137
O         57.33669       88.22891       58.98778
H         56.14321       85.36427       55.21410
H         54.68262       87.43406       56.48203
H         57.77420       87.22195       56.42958
H         56.65153       86.24250       57.44375
N         54.81362       89.52190       54.96241
C         54.87099       90.74695       54.16799
C         56.07271       91.60347       54.54133
O         56.74196       92.07782       53.63393
C         53.55721       91.55852       54.32935
C         52.38838       90.89359       53.57013
C         51.06771       91.66300       53.74722
C         49.96170       91.07933       52.85052
N         48.69714       91.79336       53.03339
H         53.98523       89.37276       55.55417
H         54.96216       90.50049       53.08613
H         53.68862       92.56771       53.87946
H         53.32045       91.69268       55.40856
H         52.24849       89.84325       53.89868
H         52.65063       90.87757       52.48916
H         51.21608       92.72898       53.46991
H         50.75294       91.61638       54.81230
H         49.80890       90.00210       53.08247
H         50.27542       91.16628       51.78565
H         47.98511       91.40517       52.37257
H         48.35216       91.66653       54.01252
H         48.82144       92.81202       52.83079
N         56.40862       91.84660       55.84158
C         57.50870       92.73247       56.23543
C         58.67321       92.01022       56.92066
O         59.61135       92.68660       57.32114
C         56.95232       93.89854       57.08449
C         56.33539       93.51919       58.40451
O         55.80866       94.48235       59.18277
O         56.30300       92.36211       58.78382
H         55.85030       91.39410       56.57776
H         57.95686       93.20960       55.33606
H         56.17776       94.42173       56.48286
H         57.77046       94.62287       57.28668
N         58.73510       90.64930       57.02066
C         59.90095       89.94009       57.54099
C         60.15610       90.08416       59.03351
O         61.17945       89.58126       59.47686
H         57.98110       90.08327       56.61367
H         60.79908       90.29546       56.98728
H         59.79352       88.85437       57.33225
N         59.31125       90.74880       59.87469
C         59.63537       90.98337       61.28515
C         59.69357       89.72101       62.15596
O         60.11577       89.83818       63.29782
C         58.67161       92.02478       61.89920
C         57.27252       91.50461       62.13710
N         56.71850       91.57360       63.36978
O         56.62718       91.03438       61.21446
H         58.46272       91.17407       59.48193
H         60.64413       91.45444       61.29367
H         58.62217       92.90555       61.22186
H         59.09394       92.37866       62.86436
H         57.23748       91.97521       64.16398
H         55.75726       91.24176       63.53036
N         59.26370       88.50177       61.71246
C         59.31091       87.27763       62.50618
C         57.93319       86.72986       62.85699
O         57.87702       85.66948       63.46381
H         58.87757       88.42091       60.76838
H         59.84905       87.43777       63.46574
H         59.87851       86.51632       61.93006
N         56.78995       87.42584       62.59212
C         55.45940       87.03918       63.06627
C         54.43479       87.17162       61.96096
O         54.38565       88.23217       61.35418
C         55.06601       88.01572       64.18901
C         55.89345       87.79060       65.42680
C         56.86298       88.72103       65.83308
C         55.68261       86.63552       66.19682
C         57.61073       88.49596       66.99331
C         56.41998       86.41899       67.36184
C         57.38791       87.34946       67.76469
O         58.10421       87.15382       68.88966
H         56.86850       88.34691       62.13679
H         55.43453       86.00425       63.47364
H         53.99648       87.89940       64.47121
H         55.19249       89.05033       63.80845
H         57.04807       89.61296       65.25085
H         54.93324       85.91096       65.90199
H         58.36050       89.21600       67.29574
H         56.23447       85.52983       67.95087
H         57.96805       86.38089       69.45632
N         53.53125       86.17764       61.68958
C         52.47358       86.34308       60.68869
C         51.08045       86.33064       61.31624
O         50.93316       86.01953       62.49065
C         52.61376       85.32554       59.52114
C         52.36029       83.86630       59.97571
C         53.99065       85.49971       58.85632
C         52.38362       82.86204       58.82092
H         53.57200       85.30032       62.23014
H         52.57043       87.34718       60.23600
H         51.84508       85.58012       58.75941
H         51.35041       83.80642       60.43598
H         53.10861       83.55607       60.73470
H         54.07698       84.89224       57.93337
H         54.13033       86.56037       58.56428
H         54.80771       85.21547       59.55291
H         52.13047       81.85171       59.20512
H         51.63825       83.14445       58.04686
H         53.39000       82.80169       58.35954
N         50.01679       86.74693       60.57057
C         48.64347       86.88695       61.04109
C         47.66919       86.21383       60.07671
O         48.09679       85.66520       59.06871
C         48.32229       88.39070       61.14217
O         48.42939       88.99992       59.88073
H         50.20418       87.06005       59.61551
H         48.52768       86.44213       62.05360
H         49.03951       88.84778       61.86413
H         47.29812       88.55710       61.53691
H         48.82194       89.90061       60.01949
N         46.32521       86.24719       60.31446
C         45.33598       85.70155       59.38644
C         45.35005       86.43269       58.05292
O         45.08731       85.80360       57.03791
C         43.92784       85.77843       59.98163
H         45.99160       86.68581       61.18688
H         45.55831       84.62384       59.21697
H         43.19304       85.32342       59.28203
H         43.89136       85.21335       60.93719
H         43.63738       86.83342       60.17285
N         45.63610       87.76560       57.98056
C         45.72777       88.49619       56.71856
C         46.84563       87.92703       55.86714
O         46.61446       87.55216       54.72626
C         46.00696       89.98435       56.98420
H         45.81779       88.27716       58.85775
H         44.75926       88.43104       56.17494
H         45.18671       90.42268       57.59039
H         46.96173       90.12729       57.53490
H         46.06913       90.54027       56.02372
N         48.09757       87.83222       56.39111
C         49.26841       87.33118       55.67282
C         49.15168       85.85096       55.30412
O         50.02725       85.36710       54.60007
C         50.51665       87.56533       56.55439
C         50.76315       89.07703       56.78107
C         51.70320       89.35485       57.91507
O         52.89836       89.91726       57.68853
O         51.37561       89.09267       59.05696
H         48.21889       88.15358       57.36275
H         49.38479       87.91036       54.72986
H         51.43297       87.11845       56.11003
H         50.32593       87.04054       57.50440
H         49.83260       89.62773       57.02090
H         51.16288       89.49083       55.83896
N         48.11260       85.07206       55.72747
C         47.93381       83.68364       55.35335
H         46.95620       83.57083       54.83664
H         48.73040       83.31833       54.67324
H         47.92488       83.05310       56.26678
H         47.39995       85.46184       56.34977
Ca        54.40554       90.22779       59.34259
O         54.17193       92.70950       61.33765
H         54.90337       93.34517       61.53938
H         53.34884       93.17718       61.62589
O         52.35906       90.22805       62.09184
H         52.31210       90.52210       61.14805
H         51.42170       90.02071       62.33186
O         52.52949       92.61908       58.71855
H         51.77007       92.32232       58.15678
H         53.25590       92.81055       58.07330

Ca 1.0



