%chk=holoCaM-CaMKII.loop2.water2.frame194.chk
%nprocshared=20
%mem=10GB
%nosave
#b3lyp/svp scf=(tight,noincore,xqc) Test 
#IOP(5/87=12) Density=Current Pop=(MK,readradii) iop(6/33=2) iop(6/42=6)

holoCaM-CaMKII.loop2.water2.frame194 

   -2  1 
C          8.49488       70.92490       24.07224
C          7.01985       71.19708       23.98182
O          6.23495       70.26649       23.89220
H          9.02749       71.43247       23.24115
H          8.87939       71.32259       25.03719
H          8.70798       69.83614       24.03232
N          6.57723       72.47992       24.03268
C          5.16963       72.86476       24.07595
C          4.41790       72.48747       22.79966
O          4.87764       72.83689       21.72127
C          5.08015       74.39353       24.28135
C          3.70614       74.86610       24.65175
O          3.47105       76.18429       24.78397
O          2.81698       74.06973       24.89716
H          7.29250       73.22085       24.11004
H          4.71125       72.37557       24.96415
H          5.42080       74.90585       23.35514
H          5.74416       74.70348       25.11620
N          3.21989       71.82925       22.85943
C          2.42419       71.47168       21.68524
C          1.04121       72.14304       21.64902
O          0.33778       71.92112       20.67254
C          2.25408       69.94607       21.65764
H          2.84908       71.57392       23.78214
H          2.95486       71.77295       20.75628
H          1.69147       69.62568       20.75438
H          3.24730       69.44868       21.64098
H          1.70169       69.60078       22.55930
N          0.56053       72.93558       22.65948
C         -0.83049       73.42109       22.69638
C         -1.02885       74.78739       23.37265
O         -2.16302       75.24479       23.40457
C         -1.70611       72.34726       23.38485
C         -1.29308       72.06946       24.80628
O         -1.71482       71.07654       25.37659
O         -0.36478       72.83852       25.40397
H          1.13224       73.01948       23.50262
H         -1.20503       73.53217       21.65484
H         -1.57674       71.40699       22.80387
H         -2.78363       72.61427       23.35647
N         -0.00783       75.49444       23.93741
C         -0.17716       76.78765       24.58605
C         -1.07536       76.73533       25.80650
O         -2.06901       77.44729       25.83216
H          0.94625       75.13202       23.88785
H         -0.57871       77.51474       23.84732
H          0.81718       77.15751       24.91810
N         -0.77471       75.92875       26.86494
C         -1.57702       75.85976       28.08925
C         -0.76760       76.17962       29.35216
O         -1.30982       76.03907       30.44035
C         -2.28696       74.48944       28.17858
C         -1.41092       73.26759       28.27678
N         -1.98741       72.04799       28.35221
O         -0.19476       73.35834       28.28322
H          0.05322       75.32268       26.78689
H         -2.40364       76.60310       28.05643
H         -2.92370       74.37577       27.27422
H         -2.95916       74.49606       29.06442
H         -3.01264       71.94780       28.34234
H         -1.41010       71.20110       28.41560
N          0.50964       76.66299       29.29440
C          1.29729       77.01553       30.47114
C          1.80446       75.83369       31.28565
O          2.48346       76.08058       32.27225
H          0.92809       76.87097       28.37856
H          0.70511       77.69966       31.11921
H          2.19888       77.57208       30.13641
N          1.52188       74.53897       30.95928
C          1.95855       73.38612       31.74263
C          2.60916       72.32956       30.86125
O          1.98424       71.88641       29.90898
C          0.74948       72.74105       32.46888
C          0.12222       73.68132       33.50678
O         -0.22301       72.27639       31.56298
H          0.92793       74.35326       30.14785
H          2.67467       73.68999       32.53853
H          1.12615       71.85985       33.03521
H         -0.69997       73.06314       31.19191
H         -0.28968       74.59119       33.02213
H         -0.70051       73.15544       34.03562
H          0.88388       73.98597       34.25599
N          3.82468       71.80010       31.18522
C          4.36848       70.60736       30.52981
C          3.39355       69.44903       30.71593
O          2.99618       69.16840       31.83881
C          5.79047       70.25719       31.08855
C          6.80796       71.30474       30.55656
C          6.23031       68.82887       30.68826
C          8.23416       71.13760       31.08629
H          4.33603       72.20001       31.98700
H          4.48617       70.79154       29.44161
H          5.75785       70.28185       32.20084
H          6.46877       72.32454       30.83453
H          6.84465       71.24733       29.44521
H          7.21610       68.57022       31.12197
H          5.53178       68.07281       31.10270
H          6.27273       68.71728       29.58527
H          8.24710       71.22018       32.19253
H          8.67876       70.16960       30.77904
H          8.87632       71.93699       30.65932
N          3.03171       68.69127       29.63964
C          2.17152       67.51617       29.71001
C          3.02359       66.26816       29.60758
O          4.22904       66.38415       29.44520
C          1.13275       67.54324       28.56879
C          0.23665       68.74241       28.63536
O          0.70318       69.86354       28.53150
O         -1.09297       68.58403       28.77662
H          3.46352       68.89838       28.73150
H          1.65145       67.47509       30.69244
H          0.50066       66.63197       28.61813
H          1.65418       67.54591       27.58567
N          2.48007       65.02967       29.76276
C          3.30163       63.82654       29.78654
C          3.97318       63.55483       28.43518
O          5.19316       63.49221       28.43689
C          2.51643       62.62310       30.34771
C          3.39181       61.39978       30.46821
C          3.08026       60.23435       29.74964
C          4.52929       61.41226       31.29756
C          3.89530       59.10377       29.85487
C          5.34164       60.28086       31.39766
C          5.02547       59.12733       30.67673
H          1.46843       64.95176       29.95321
H          4.10821       64.00673       30.53242
H          1.62776       62.40341       29.73645
H          2.13532       62.88233       31.35967
H          2.21022       60.20157       29.10559
H          4.79094       62.29466       31.86754
H          3.65085       58.20943       29.29752
H          6.21635       60.29984       32.03495
H          5.65599       58.25187       30.75593
N          3.29728       63.40744       27.24490
C          3.95434       63.24209       25.94656
C          5.11625       64.18979       25.72566
O          6.16714       63.76008       25.27036
C          2.83759       63.56609       24.94408
C          1.63363       62.99825       25.64567
C          1.85725       63.47884       27.07727
H          4.28141       62.18402       25.83352
H          2.67482       64.66770       24.88685
H          3.01808       63.18381       23.91640
H          0.64789       63.27194       25.21379
H          1.73598       61.88777       25.62186
H          1.53075       64.53111       27.22358
H          1.28691       62.79621       27.72612
N          4.99015       65.49995       26.06646
C          6.03963       66.49882       25.89006
C          7.28604       66.08168       26.64396
O          8.33703       65.95027       26.03290
C          5.55981       67.88340       26.37898
C          4.31221       68.34902       25.61191
C          3.75765       69.64385       26.09952
O          2.57855       70.02467       25.60122
O          4.31740       70.32234       26.94399
H          4.09971       65.77890       26.50112
H          6.28033       66.58858       24.80639
H          6.37230       68.63039       26.24122
H          5.31349       67.82968       27.46036
H          3.48731       67.62448       25.73799
H          4.52302       68.42806       24.52509
N          7.22917       65.82003       27.97703
C          8.37285       65.36811       28.73360
H          9.17133       66.13781       28.71146
H          8.07465       65.18728       29.78890
H          8.75261       64.41522       28.30737
H          6.33659       65.91795       28.47132
Ca         1.35543       71.75097       26.28300
O          4.87709       73.25882       27.75421
H          5.54442       72.56508       27.52755
H          5.41751       74.03991       28.03288
O          2.56462       74.87431       27.88897
H          3.04989       75.48577       28.49709
H          2.36538       75.43222       27.09771

Ca 1.0



