%chk=holoCaM.loop4.water3.frame280.chk
%nprocshared=20
%mem=10GB
%nosave
#b3lyp/svp scf=(tight,noincore,xqc) Test 
#IOP(5/87=12) Density=Current Pop=(MK,readradii) iop(6/33=2) iop(6/42=6)

holoCaM.loop4.water3.frame280 

   -3  1 
C         35.24421       77.71407       58.14285
C         36.18000       76.58394       57.82396
O         36.43800       76.31918       56.65983
H         34.37750       77.33502       58.72270
H         35.78147       78.47066       58.75635
H         34.88023       78.20814       57.21784
N         36.76691       75.90161       58.84091
C         37.78381       74.87529       58.64849
C         37.20557       73.58507       58.06433
O         36.29605       73.03041       58.66576
C         38.42389       74.55506       60.01687
C         39.66220       73.72326       59.90646
O         40.25888       73.27579       61.02621
O         40.16750       73.49896       58.81940
H         36.53668       76.19651       59.80360
H         38.57942       75.30217       57.99574
H         37.67834       74.03477       60.65662
H         38.72387       75.49372       60.53008
N         37.72080       73.02420       56.92811
C         37.25953       71.74351       56.37216
C         38.36706       70.67174       56.30146
O         38.05285       69.55953       55.90099
C         36.57060       71.96772       54.98581
C         37.53086       72.57985       53.92893
C         35.30817       72.82957       55.18095
C         36.89721       72.77967       52.54754
H         38.47443       73.52695       56.44342
H         36.48836       71.30026       57.03919
H         36.22839       70.97762       54.60932
H         38.40716       71.90822       53.80532
H         37.89426       73.56614       54.26776
H         34.64041       72.35874       55.93379
H         35.57167       73.85121       55.52567
H         34.72085       72.90583       54.24426
H         36.06988       73.51833       52.58425
H         37.65858       73.18250       51.84626
H         36.51673       71.81674       52.14780
N         39.66631       70.92011       56.65370
C         40.75839       69.93390       56.54187
C         41.66500       69.82099       57.79458
O         42.55608       68.98285       57.77910
C         41.61409       70.21953       55.27993
C         42.24138       71.58233       55.25154
O         41.90614       72.49128       56.17782
O         43.03890       71.87264       54.37490
H         39.89190       71.87055       56.94836
H         40.32843       68.92113       56.38121
H         40.99048       70.11210       54.36655
H         42.42127       69.45578       55.22603
N         41.49436       70.58552       58.91301
C         42.25395       70.43377       60.15830
C         43.73878       70.81571       60.16720
O         44.33475       70.68608       61.22709
H         40.71156       71.24100       58.93649
H         42.15888       69.38028       60.49911
H         41.77238       71.07151       60.93003
N         44.41684       71.26659       59.07503
C         45.86375       71.55371       59.08458
C         46.30361       72.70062       60.01541
O         47.27369       72.50619       60.73467
C         46.41537       71.72965       57.63943
C         45.73775       72.77706       56.80781
O         44.80133       73.54563       57.36886
O         45.97943       72.86988       55.61633
H         43.90167       71.34330       58.18752
H         46.39391       70.64143       59.44258
H         46.24675       70.76401       57.11495
H         47.51072       71.91886       57.66297
N         45.68294       73.91643       60.04042
C         46.14524       75.07637       60.79432
C         46.37133       76.29987       59.90350
O         46.65032       77.36015       60.44285
H         44.81935       74.04581       59.51665
H         47.08113       74.86212       61.35280
H         45.35682       75.33530       61.53378
N         46.24902       76.23624       58.54328
C         46.36292       77.36800       57.62605
C         45.03089       77.57958       56.91047
O         44.06967       76.89424       57.22609
C         47.48206       77.09256       56.59923
C         48.86627       76.97991       57.25342
C         49.97656       76.83996       56.23585
N         51.26248       76.77925       56.64856
O         49.72788       76.79533       55.03879
H         46.04907       75.33733       58.10479
H         46.60096       78.30883       58.16898
H         47.53501       77.93784       55.88319
H         47.25398       76.16474       56.02784
H         48.88928       76.10722       57.94084
H         49.05808       77.90387       57.84077
H         51.49470       76.82353       57.65131
H         52.02808       76.69723       55.96304
N         44.90015       78.53070       55.93706
C         43.64402       78.82083       55.25371
C         43.77863       78.50340       53.76380
O         44.68597       79.00425       53.11576
C         43.25386       80.30683       55.49336
C         41.88801       80.63107       54.86874
C         43.19569       80.62937       56.99684
H         45.71558       79.10286       55.67685
H         42.82077       78.20284       55.67419
H         44.02077       80.96677       55.03080
H         41.09324       79.99826       55.31932
H         41.62566       81.69671       55.03928
H         41.90925       80.46371       53.77521
H         42.92054       81.69488       57.15018
H         42.44587       79.98866       57.50932
H         44.18568       80.47117       57.47355
N         42.84819       77.71200       53.15501
C         42.80972       77.38972       51.72496
C         41.78412       78.29375       51.05236
O         41.17682       79.09575       51.73705
C         42.48521       75.87587       51.60428
C         42.22279       75.32218       50.23339
N         41.04085       74.72061       49.96033
O         43.09041       75.37631       49.37504
H         42.05301       77.38972       53.72560
H         43.78523       77.60951       51.23863
H         41.59883       75.65786       52.23993
H         43.34397       75.30421       51.99330
H         40.29905       74.64812       50.67405
H         40.87229       74.30939       49.03404
N         41.58116       78.28097       49.70371
C         40.62882       79.16995       49.04129
C         39.20640       78.90509       49.51578
O         38.55162       79.84329       49.95071
C         40.69033       78.99491       47.51210
C         39.74349       79.95330       46.82316
C         39.98839       81.33761       46.81605
C         38.58841       79.46430       46.19914
C         39.09033       82.20860       46.18646
C         37.68765       80.33092       45.58313
C         37.93632       81.70845       45.57123
O         37.07377       82.55583       44.97557
H         42.14465       77.64982       49.12060
H         40.91023       80.22304       49.27142
H         40.42112       77.94263       47.27425
H         41.72118       79.16617       47.13253
H         40.87407       81.74116       47.29091
H         38.37325       78.41339       46.20540
H         39.28894       83.27273       46.17945
H         36.79641       79.92759       45.11919
H         36.26500       82.24317       44.54451
N         38.66227       77.65024       49.45635
C         37.28902       77.34711       49.87066
C         37.01576       77.63262       51.35684
O         35.87594       77.46133       51.76769
C         36.90477       75.87042       49.56902
C         36.71049       75.51225       48.08032
C         37.96780       75.40951       47.27259
O         38.91133       74.51518       47.61008
O         38.10277       76.06597       46.25531
H         39.24917       76.88806       49.08859
H         36.59622       77.99624       49.29052
H         35.89957       75.69758       50.01204
H         37.60784       75.16559       50.06462
H         36.00517       76.23704       47.61644
H         36.23833       74.50751       48.03499
N         37.96869       78.10913       52.20833
C         37.72044       78.45299       53.60147
C         37.68504       79.96520       53.72927
O         36.67661       80.50196       54.16616
C         38.82296       77.84907       54.49285
C         38.93233       76.32722       54.32089
C         40.04956       75.72638       55.12567
O         40.31220       74.41485       54.99967
O         40.74087       76.40813       55.86553
H         38.91730       78.27183       51.86902
H         36.73720       78.05586       53.94090
H         38.61638       78.09688       55.55774
H         39.80147       78.29254       54.21232
H         39.13918       76.09152       53.25549
H         37.97422       75.85061       54.60978
N         38.74227       80.72229       53.32810
C         38.74174       82.16604       53.37101
H         39.70376       82.55107       52.96697
H         37.91586       82.56199       52.74286
H         38.62737       82.51700       54.41676
H         39.57685       80.26353       52.95621
Ca        42.96638       74.38156       56.51419
O         42.55461       74.74160       60.15383
H         42.71785       74.64861       61.12540
H         42.58102       73.81299       59.80906
O         41.07262       76.87696       58.68950
H         40.33088       77.14319       59.28825
H         41.89147       77.18026       59.15588
O         44.10932       75.30057       54.24926
H         43.52322       74.52279       54.06283
H         44.95491       74.90388       54.56644

Ca 1.0



