%chk=holoCaM.loop2.water2.frame432.chk
%nprocshared=20
%mem=10GB
%nosave
#b3lyp/svp scf=(tight,noincore,xqc) Test 
#IOP(5/87=12) Density=Current Pop=(MK,readradii) iop(6/33=2) iop(6/42=6)

holoCaM.loop2.water2.frame432 

   -2  1 
C         90.43246       99.85646       69.79292
C         90.18492      101.33568       69.70725
O         90.96332      102.03427       69.07419
H         91.42280       99.67851       70.26326
H         89.66311       99.35188       70.41650
H         90.41881       99.40628       68.77995
N         89.11835      101.88638       70.34890
C         88.85104      103.32053       70.39646
C         90.02881      104.03573       71.03818
O         90.41539      103.68055       72.14240
C         87.51971      103.55308       71.14003
C         87.17046      104.97928       71.47350
O         86.90292      105.24654       72.63167
O         87.09107      105.95846       70.54837
H         88.48067      101.25042       70.85327
H         88.71374      103.68837       69.36760
H         87.53842      102.98849       72.09832
H         86.70413      103.12953       70.51292
N         90.65455      105.05305       70.37621
C         91.85999      105.71916       70.84848
C         91.59023      107.13120       71.34827
O         92.52892      107.76452       71.81091
C         92.87132      105.75685       69.69014
H         90.26913      105.37393       69.47967
H         92.30066      105.15501       71.69735
H         93.82481      106.23084       70.00324
H         93.08654      104.72898       69.32831
H         92.45583      106.34119       68.83671
N         90.35470      107.70377       71.27005
C         90.07416      109.08093       71.67296
C         88.84439      109.19823       72.58079
O         88.47460      110.31353       72.92012
C         89.97274      109.93284       70.39666
C         88.98386      109.38652       69.41657
O         89.36884      108.95167       68.34358
O         87.67941      109.34693       69.72669
H         89.58874      107.18194       70.82116
H         90.92282      109.51175       72.24782
H         90.97714      109.92158       69.91620
H         89.72814      110.98859       70.63801
N         88.19606      108.09980       73.06046
C         87.07630      108.15053       73.98803
C         85.80986      108.73795       73.40281
O         85.21260      109.59062       74.04411
H         88.54450      107.16349       72.81928
H         87.36995      108.68462       74.91868
H         86.82748      107.11096       74.28690
N         85.30706      108.27967       72.21905
C         83.98931      108.63967       71.69607
C         83.12271      107.39378       71.44842
O         82.00109      107.54032       70.98363
C         84.12004      109.49828       70.42284
C         84.45211      108.72239       69.17144
N         83.61203      108.75994       68.11147
O         85.47397      108.06015       69.10491
H         85.87816      107.62629       71.67666
H         83.46546      109.28221       72.43770
H         84.87403      110.29719       70.59512
H         83.14417      110.00588       70.26056
H         82.73705      109.30393       68.14180
H         83.84193      108.25133       67.24926
N         83.57214      106.13948       71.75699
C         82.79127      104.92193       71.61487
C         82.78113      104.29416       70.22912
O         82.24990      103.19487       70.13983
H         84.47563      106.02739       72.23098
H         81.76243      105.07345       72.00764
H         83.26928      104.15716       72.26667
N         83.32703      104.87335       69.11472
C         83.35722      104.19880       67.80505
C         84.77681      104.16307       67.23393
O         85.67296      104.70198       67.86426
C         82.36952      104.86958       66.82302
C         80.93876      104.86798       67.37394
O         82.76749      106.18497       66.56004
H         83.71818      105.82465       69.18367
H         83.02897      103.14104       67.91152
H         82.37550      104.27980       65.87757
H         82.34083      106.44969       65.70325
H         80.60866      103.83014       67.59181
H         80.87374      105.47271       68.30363
H         80.24750      105.30784       66.62470
N         85.06061      103.52263       66.05635
C         86.40582      103.42839       65.47089
C         86.45645      104.00035       64.04740
O         85.72020      103.55436       63.17847
C         86.94957      101.96497       65.51543
C         85.99055      100.92956       64.86770
C         87.29367      101.58887       66.97001
C         86.57833       99.51972       64.78562
H         84.28922      103.04973       65.56210
H         87.12277      104.02843       66.07063
H         87.90853      101.95371       64.95238
H         85.76074      101.23210       63.82795
H         85.03817      100.87810       65.43699
H         87.80743      100.60868       67.02430
H         88.00459      102.32826       67.39501
H         86.38344      101.56373       67.60404
H         87.52441       99.53167       64.20538
H         86.76590       99.09545       65.79194
H         85.85525       98.85054       64.27358
N         87.33662      105.00359       63.74969
C         87.49735      105.62385       62.42645
C         88.33940      104.71439       61.49673
O         88.68195      103.61961       61.92099
C         88.14448      107.01763       62.64953
C         87.98492      108.03161       61.54445
O         88.56139      109.23990       61.68324
O         87.26636      107.82463       60.57996
H         87.91228      105.37272       64.52211
H         86.48392      105.80335       62.00448
H         89.21071      106.88499       62.91985
H         87.64862      107.49958       63.51832
N         88.71510      105.08376       60.22568
C         89.45784      104.20551       59.31491
C         90.80036      103.75724       59.87210
O         91.10004      102.58163       59.72042
C         89.57655      104.76261       57.85822
C         90.70155      105.73482       57.55283
C         92.04010      105.28838       57.53031
C         90.43366      107.07949       57.24269
C         93.08207      106.16852       57.23007
C         91.48328      107.95945       56.94627
C         92.80508      107.50492       56.94333
H         88.43517      105.99453       59.85694
H         88.82051      103.30009       59.18852
H         88.59023      105.19375       57.58073
H         89.74083      103.90769       57.16534
H         92.28375      104.25492       57.73753
H         89.41699      107.44946       57.23745
H         94.10502      105.81249       57.22182
H         91.27362      108.99563       56.71609
H         93.61538      108.18539       56.71361
N         91.68987      104.60355       60.49114
C         92.97161      104.16650       61.03027
C         92.77202      103.08705       62.07449
O         93.40089      102.04044       62.02436
C         93.54911      105.43281       61.69849
C         92.91309      106.54295       60.89470
C         91.49194      106.02027       60.73177
H         93.62728      103.83952       60.19262
H         93.14624      105.55857       62.72834
H         94.65724      105.45513       61.76987
H         92.98164      107.55298       61.35261
H         93.40057      106.56486       59.89825
H         90.92737      106.13753       61.67767
H         90.97803      106.57081       59.92749
N         91.86602      103.32031       63.06116
C         91.57995      102.44044       64.18508
C         90.91087      101.13568       63.77314
O         90.76835      100.26889       64.62460
C         90.62932      103.19129       65.13387
C         91.26842      104.47117       65.70698
C         90.21334      105.30355       66.34987
O         90.05449      106.47411       66.04035
O         89.40994      104.73254       67.24917
H         91.35577      104.21354       63.01200
H         92.53359      102.21155       64.71107
H         90.31063      102.54376       65.98123
H         89.72295      103.46045       64.54580
H         91.76479      105.09977       64.94012
H         92.03590      104.17875       66.45480
N         90.43305      100.93806       62.51300
C         89.76716       99.72858       62.07931
H         88.73279       99.97801       61.76088
H         90.31451       99.30229       61.21288
H         89.71648       98.96103       62.87852
H         90.50892      101.68611       61.82124
Ca        87.99337      105.87983       68.51621
O         88.08698      109.32311       65.97980
H         87.92612      109.68517       65.07378
H         87.47093      109.83017       66.56717
O         85.91704      107.28286       65.68367
H         85.07557      106.79579       65.50436
H         85.86262      108.08042       65.10002

Ca 1.0



