%chk=holoCaM.loop3.water3.frame126.chk
%nprocshared=20
%mem=10GB
%nosave
#b3lyp/svp scf=(tight,noincore,xqc) Test 
#IOP(5/87=12) Density=Current Pop=(MK,readradii) iop(6/33=2) iop(6/42=6)

holoCaM.loop3.water3.frame126 

   0  1 
C        106.92328       93.11573       13.88302
C        106.10446       91.99491       14.44274
O        106.20876       91.73589       15.63349
H        107.99993       92.88931       14.03588
H        106.74027       93.24775       12.79652
H        106.66905       94.05826       14.40985
N        105.29178       91.25663       13.63417
C        104.53061       90.11721       14.11602
C        105.17852       88.86336       13.56126
O        105.22589       88.69369       12.34994
C        103.05047       90.25236       13.72722
C        102.31252       89.08300       14.27884
O        102.34166       88.85200       15.60090
O        101.77782       88.28834       13.53088
H        105.26080       91.46913       12.62481
H        104.58298       90.07350       15.22590
H        102.94621       90.28936       12.61977
H        102.62133       91.18404       14.15225
N        105.80805       87.99989       14.40952
C        106.72149       86.97255       13.93033
C        105.97277       85.78927       13.32478
O        106.11842       85.54266       12.13593
C        107.67832       86.54725       15.08036
C        109.07130       86.08241       14.61518
C        109.92148       87.27763       14.12244
C        111.36508       86.87840       13.80169
N        112.15143       88.05399       13.41994
H        105.78424       88.20819       15.41847
H        107.33944       87.46504       13.15300
H        107.19220       85.77584       15.71199
H        107.87226       87.41105       15.75498
H        108.98971       85.28307       13.84816
H        109.58974       85.66344       15.50534
H        109.95384       88.04505       14.92828
H        109.47894       87.74209       13.21879
H        111.37048       86.13991       12.97073
H        111.82922       86.41019       14.69796
H        113.13025       87.75948       13.20148
H        111.73718       88.51008       12.57464
H        112.17750       88.74149       14.20881
N        105.15271       85.00891       14.09641
C        104.41166       83.85016       13.57828
C        103.34346       84.22380       12.54898
O        102.80374       83.31866       11.92641
C        103.74547       83.00999       14.70809
C        102.71743       83.80009       15.47255
O        101.52579       83.56746       15.34720
O        103.12947       84.81767       16.24284
H        105.10143       85.23189       15.09674
H        105.15226       83.18946       13.07568
H        104.50937       82.62561       15.41693
H        103.25438       82.12927       14.23770
N        102.97826       85.51447       12.31145
C        102.02311       85.88873       11.28528
C        100.61537       85.39229       11.53734
O        100.07779       84.71373       10.67389
H        103.41771       86.27955       12.84078
H        102.38827       85.52523       10.29912
H        101.97200       86.99696       11.22656
N         99.92381       85.77851       12.65098
C         98.48605       85.55317       12.81395
C         97.71470       86.87112       12.73196
O         96.49130       86.82797       12.70868
C         98.16557       84.77782       14.11089
C         98.37699       85.57773       15.37690
N         97.34876       85.80968       16.22759
O         99.48348       86.01211       15.64476
H        100.41691       86.32822       13.36304
H         98.11997       84.92829       11.97079
H         98.78258       83.85450       14.14578
H         97.10014       84.46264       14.06752
H         96.40441       85.44657       16.03300
H         97.49659       86.35148       17.09172
N         98.35645       88.07747       12.66781
C         97.69476       89.35141       12.48267
C         97.87606       90.28794       13.65733
O         97.61155       91.46518       13.48047
H         99.38052       88.12702       12.71901
H         96.60469       89.24669       12.29224
H         98.14168       89.82076       11.57879
N         98.19829       89.82995       14.91062
C         98.21736       90.71622       16.07871
C         99.47598       90.52215       16.89991
O        100.15212       89.53068       16.71899
C         96.99549       90.44031       16.98300
C         95.68497       90.59789       16.24585
C         95.27500       89.64716       15.29092
C         94.85579       91.69899       16.50908
C         94.07487       89.81000       14.59732
C         93.65448       91.86064       15.81300
C         93.26263       90.91811       14.85096
O         92.11054       91.06599       14.16742
H         98.32602       88.82057       15.06319
H         98.17917       91.77652       15.75005
H         97.03896       91.16373       17.82678
H         97.03757       89.41851       17.42074
H         95.87967       88.77503       15.07901
H         95.14546       92.44128       17.24212
H         93.77863       89.07349       13.86050
H         93.03206       92.72132       16.01969
H         91.52309       91.82173       14.30877
N         99.82681       91.43831       17.85772
C        100.97829       91.25985       18.74061
C        100.49398       91.34392       20.17969
O        100.07559       92.40958       20.60568
C        102.07499       92.33562       18.45932
C        102.52415       92.28318       16.97713
C        103.28042       92.14184       19.40391
C        103.52566       93.37757       16.59807
H         99.25923       92.29006       17.96256
H        101.43648       90.26249       18.57192
H        101.63938       93.34150       18.65096
H        101.63623       92.42740       16.32611
H        102.96704       91.29134       16.74832
H        102.96541       92.21768       20.45943
H        103.75828       91.15290       19.24452
H        104.03937       92.93477       19.26290
H        103.74227       93.31720       15.51155
H        103.10463       94.38090       16.81903
H        104.48766       93.25662       17.13493
N        100.51590       90.24379       20.98650
C        100.12326       90.29671       22.39459
C        101.16682       91.04061       23.21533
O        102.18810       91.42803       22.67382
C         99.95539       88.86866       22.94545
O        101.17309       88.17294       22.88082
H        100.80256       89.34340       20.57893
H         99.13621       90.80316       22.47732
H         99.16831       88.35693       22.34209
H         99.60734       88.88986       24.00005
H        100.96563       87.24725       22.58977
N        100.99071       91.25493       24.54755
C        102.02877       91.83920       25.39231
C        103.22608       90.90488       25.47540
O        104.34294       91.34255       25.23657
C        101.49073       92.10203       26.80106
H        100.09749       90.97130       24.97882
H        102.33828       92.82855       24.98365
H        100.63649       92.81027       26.74751
H        101.15177       91.16318       27.28613
H        102.28482       92.56610       27.42604
N        103.05006       89.58799       25.80024
C        104.14109       88.62114       25.95039
C        104.96778       88.38334       24.68531
O        105.94563       87.65295       24.77121
C        103.57388       87.27843       26.43191
H        102.08618       89.26729       25.98210
H        104.82682       89.00590       26.73706
H        103.01591       87.42021       27.38197
H        102.88218       86.85712       25.66998
H        104.39059       86.54882       26.61822
N        104.67146       88.97731       23.49630
C        105.48372       88.84926       22.29348
C        106.19869       90.16556       22.04023
O        107.41158       90.14763       21.88254
C        104.60674       88.41775       21.10331
C        104.06875       86.99025       21.30206
C        103.23308       86.54885       20.13510
O        103.56521       85.57893       19.47231
O        102.10517       87.21160       19.82106
H        103.84671       89.58217       23.42855
H        106.27823       88.07774       22.41191
H        105.23133       88.42401       20.18414
H        103.76749       89.13610       20.96581
H        103.45218       86.93309       22.22231
H        104.92949       86.29444       21.41816
N        105.52939       91.35208       22.05994
C        106.17361       92.64193       21.91683
H        107.25982       92.55434       21.70769
H        105.69703       93.20484       21.08974
H        106.04578       93.21814       22.85868
H        104.52080       91.35793       22.23475
Ca       102.05556       86.76445       16.34234
O        100.11185       84.38541       18.61742
H         99.29543       83.89828       18.34052
H         99.94677       84.62759       19.56340
O        104.12254       88.38861       17.77484
H        104.99355       88.82676       17.61139
H        103.50028       89.13556       17.95703
O         99.03006       87.87769       18.79023
H         99.48209       87.07285       19.14489
H         98.37351       88.12370       19.48860

Ca 1.0



