%chk=holoCaM-CaMKII.loop3.water2.frame104.chk
%nprocshared=20
%mem=10GB
%nosave
#b3lyp/svp scf=(tight,noincore,xqc) Test 
#IOP(5/87=12) Density=Current Pop=(MK,readradii) iop(6/33=2) iop(6/42=6)

holoCaM-CaMKII.loop3.water2.frame104 

   0  1 
C         33.54916       24.99307       53.48474
C         34.02686       24.80335       54.89713
O         34.32269       23.68749       55.28998
H         32.53246       25.44130       53.49037
H         34.23864       25.68297       52.95127
H         33.51472       24.02836       52.93751
N         34.13271       25.88841       55.70782
C         34.61340       25.88753       57.09461
C         33.68369       25.03794       57.98592
O         32.67426       25.54589       58.45279
C         34.67770       27.38935       57.50664
C         35.13169       27.81799       58.86643
O         35.00072       28.99170       59.16695
O         35.58432       26.98010       59.79815
H         33.87005       26.79212       55.27939
H         35.64252       25.46649       57.11922
H         33.64599       27.79137       57.40199
H         35.32977       27.92465       56.78116
N         33.91833       23.69690       58.16606
C         33.01105       22.77905       58.87340
C         32.93311       22.98939       60.38448
O         32.05968       22.39732       61.00362
C         33.37554       21.29740       58.56790
C         34.69758       20.80943       59.20146
C         35.08260       19.41642       58.67960
C         36.42547       18.93797       59.25653
N         36.81111       17.65030       58.67636
H         34.72194       23.29123       57.67739
H         31.99911       22.95040       58.44419
H         33.43423       21.19206       57.46206
H         32.56253       20.62921       58.92680
H         34.60919       20.79295       60.30989
H         35.50998       21.49703       58.93970
H         35.17401       19.46566       57.57268
H         34.28787       18.68408       58.93726
H         36.34271       18.83797       60.36152
H         37.22146       19.68351       59.03286
H         37.71366       17.33526       59.10029
H         36.07673       16.93093       58.86820
H         36.94428       17.74963       57.64309
N         33.83326       23.76622       61.04926
C         33.80122       24.00958       62.49359
C         33.68144       25.49631       62.80801
O         33.68161       25.84126       63.98275
C         35.02235       23.37091       63.22606
C         36.41309       23.72684       62.75937
O         37.37877       23.35298       63.40239
O         36.62386       24.35631       61.60215
H         34.57709       24.20957       60.49947
H         32.90673       23.53238       62.95300
H         34.94450       22.26508       63.16740
H         34.94820       23.64356       64.30271
N         33.54648       26.43995       61.82978
C         33.45145       27.85965       62.11564
C         34.72828       28.45519       62.68432
O         34.68620       29.62565       63.03681
H         33.46388       26.15839       60.84625
H         32.61273       28.02205       62.82845
H         33.20649       28.41164       61.18276
N         35.89112       27.74217       62.82881
C         37.05798       28.30904       63.50094
C         37.69978       29.48493       62.75723
O         38.55702       30.12515       63.34987
C         38.12526       27.22813       63.83455
C         38.90345       26.68000       62.66213
N         39.94574       25.84412       62.86718
O         38.62028       27.00416       61.52592
H         35.92944       26.75833       62.53325
H         36.68999       28.68036       64.48341
H         37.64796       26.38123       64.37506
H         38.86550       27.69343       64.51885
H         40.21661       25.55986       63.81869
H         40.50143       25.50173       62.07026
N         37.37902       29.80564       61.46478
C         37.98692       30.91602       60.73487
C         38.84400       30.47470       59.55493
O         39.45699       31.33677       58.94198
H         36.68849       29.23580       60.96377
H         38.65416       31.50007       61.40510
H         37.18787       31.60213       60.38408
N         39.00128       29.16012       59.22599
C         39.98301       28.66369       58.26794
C         39.39377       27.63770       57.32338
O         38.70789       26.72992       57.76883
C         41.11861       27.97089       59.05137
C         41.95029       28.97087       59.81370
C         42.70551       29.92392       59.10798
C         41.99650       28.96069       61.21668
C         43.48910       30.85370       59.79100
C         42.78082       29.89698       61.90028
C         43.52885       30.84496       61.19127
O         44.28231       31.73900       61.86224
H         38.48387       28.45469       59.75327
H         40.43441       29.48496       57.67111
H         41.80500       27.44109       58.35383
H         40.67943       27.20615       59.73001
H         42.69407       29.94296       58.02514
H         41.42527       28.23507       61.78114
H         44.06550       31.57787       59.22898
H         42.80865       29.88511       62.98228
H         44.81327       32.40731       61.40516
N         39.78644       27.63106       56.01864
C         39.48286       26.55149       55.08779
C         40.78196       25.80664       54.81638
O         41.77268       26.42488       54.45228
C         38.84523       27.09479       53.78193
C         37.51398       27.82083       54.10467
C         38.60820       25.93202       52.78941
C         36.89670       28.52425       52.89471
H         40.42470       28.37292       55.69067
H         38.75249       25.83824       55.53014
H         39.55240       27.81971       53.32085
H         37.69838       28.60619       54.86826
H         36.77998       27.09783       54.52564
H         38.19875       26.29049       51.82594
H         39.56080       25.41934       52.54278
H         37.91021       25.18289       53.22368
H         37.60871       29.27353       52.48763
H         36.61989       27.80789       52.09629
H         35.97021       29.04902       53.20813
N         40.82280       24.45422       54.95556
C         41.99983       23.62688       54.74189
C         41.78849       22.76191       53.51549
O         40.75070       22.86896       52.88551
C         42.24403       22.76389       55.99573
O         41.17495       21.87535       56.20290
H         39.95159       23.96649       55.17584
H         42.89755       24.25733       54.56753
H         42.39094       23.43237       56.87720
H         43.17305       22.16685       55.89143
H         40.77560       22.08530       57.08600
N         42.74705       21.89519       53.09555
C         42.57380       21.02695       51.93473
C         41.47916       19.99753       52.17419
O         40.58404       19.88199       51.34938
C         43.88954       20.32095       51.60683
H         43.63795       21.86334       53.61432
H         42.32088       21.64568       51.04351
H         44.67116       21.08292       51.39647
H         44.22552       19.68337       52.45061
H         43.76484       19.69395       50.69810
N         41.48639       19.22502       53.29975
C         40.47855       18.20732       53.60326
C         39.07392       18.78090       53.55150
O         38.23306       18.22839       52.85604
C         40.74436       17.60090       54.98778
H         42.24059       19.38602       53.98579
H         40.55319       17.38321       52.85886
H         40.68976       18.37906       55.77941
H         39.99726       16.80938       55.21195
H         41.75530       17.14030       55.01243
N         38.77151       19.92559       54.22259
C         37.46791       20.58833       54.16158
C         37.08061       20.85927       52.71501
O         36.00226       20.45654       52.30126
C         37.50599       21.91052       54.96662
C         37.68721       21.64953       56.47493
C         37.82102       22.91149       57.28057
O         36.96223       23.17081       58.26856
O         38.74611       23.67821       57.10110
H         39.53195       20.37171       54.75535
H         36.68617       19.93413       54.60963
H         36.55385       22.46296       54.82276
H         38.32869       22.54164       54.57482
H         38.59002       21.03973       56.66723
H         36.80781       21.07809       56.83624
N         37.93775       21.49564       51.87594
C         37.64317       21.74155       50.48236
H         36.76569       22.41422       50.39297
H         38.51732       22.22578       49.99462
H         37.43970       20.78219       49.96036
H         38.84968       21.78490       52.23204
Ca        37.09911       25.39497       59.70994
O         38.42596       22.11960       60.59306
H         38.76044       22.90169       61.09874
H         39.11433       21.42364       60.73542
O         40.57128       24.25814       59.71122
H         41.06242       23.81735       60.44988
H         41.27383       24.50762       59.06100

Ca 1.0



