%chk=holoCaM-CaMKII.loop1.water2.frame355.chk
%nprocshared=20
%mem=10GB
%nosave
#b3lyp/svp scf=(tight,noincore,xqc) Test 
#IOP(5/87=12) Density=Current Pop=(MK,readradii) iop(6/33=2) iop(6/42=6)

holoCaM-CaMKII.loop1.water2.frame355 

   0  1 
C         42.29612       69.77705       36.36858
C         42.66145       71.15926       36.80812
O         41.98166       71.68272       37.68025
H         41.27342       69.78797       35.93643
H         43.00675       69.39150       35.60983
H         42.30927       69.10123       37.24998
N         43.71094       71.82612       36.24010
C         44.10278       73.16082       36.66295
C         43.81356       74.17599       35.57156
O         44.37360       74.09637       34.48742
C         45.56755       73.17368       37.10120
C         45.87747       74.50739       37.68263
O         45.07043       74.99126       38.64369
O         46.82698       75.16273       37.28525
H         44.24362       71.37733       35.47941
H         43.50270       73.43965       37.55664
H         46.25718       72.92545       36.26424
H         45.70584       72.41959       37.90277
N         42.86304       75.12502       35.79956
C         42.34554       76.03134       34.78205
C         43.28147       77.18308       34.41734
O         43.02736       77.76684       33.37202
C         41.00658       76.63951       35.27690
C         39.73001       75.76655       35.16500
C         39.70992       74.33841       35.74965
C         40.38629       73.23467       34.90328
N         39.80749       73.11822       33.56292
H         42.38894       75.10753       36.71458
H         42.13796       75.46446       33.84773
H         40.76000       77.54682       34.68262
H         41.14739       76.98759       36.32556
H         39.39799       75.72556       34.11010
H         38.94801       76.34456       35.70602
H         38.64310       74.03468       35.83026
H         40.11720       74.35160       36.77520
H         40.24170       72.26904       35.43588
H         41.46969       73.37803       34.80576
H         38.77139       72.99107       33.62149
H         40.03680       73.95909       32.98747
H         40.22316       72.28650       33.08475
N         44.25210       77.67914       35.25005
C         44.93276       78.95409       34.95715
C         46.46330       78.91615       34.98860
O         47.06551       79.95345       34.74602
C         44.34158       80.06997       35.84700
C         44.57373       79.94040       37.32523
O         44.05091       80.86705       38.15026
O         45.22955       79.02426       37.79010
H         44.40669       77.22572       36.16251
H         44.69035       79.28115       33.92270
H         43.24267       80.09411       35.67274
H         44.75128       81.05041       35.52104
N         47.16572       77.76893       35.19142
C         48.61591       77.68622       35.04738
C         49.41653       78.39032       36.12813
O         50.27614       79.19964       35.81153
H         46.65501       76.88968       35.35005
H         48.91181       78.05459       34.04039
H         48.90498       76.61440       35.10263
N         49.23775       78.04056       37.42801
C         50.11890       78.42602       38.54060
C         50.67622       77.16879       39.23166
O         51.34394       77.30433       40.24774
C         49.41179       79.39192       39.54011
C         48.14175       78.86489       40.13100
O         47.72855       77.66320       39.73968
O         47.44296       79.55810       40.85203
H         48.46792       77.38436       37.61097
H         50.99443       79.00106       38.16634
H         49.15666       80.32237       38.98841
H         50.11161       79.66194       40.36059
N         50.49894       75.91783       38.69855
C         51.09707       74.70683       39.23760
C         50.31558       74.03777       40.35484
O         50.75458       72.97541       40.77079
H         50.03460       75.81186       37.78678
H         52.15024       74.90056       39.54005
H         51.13783       73.95819       38.41580
N         49.17448       74.56311       40.89737
C         48.42930       73.89802       41.97702
C         46.94846       73.74205       41.64185
O         46.51283       74.24302       40.62478
C         48.62044       74.67026       43.30236
C         50.07797       74.60880       43.78276
O         48.18117       76.00211       43.19178
H         48.84067       75.47797       40.56689
H         48.81559       72.86685       42.13069
H         48.01744       74.17972       44.09530
H         48.85176       76.50876       42.66243
H         50.38528       73.54943       43.92035
H         50.76359       75.08513       43.05047
H         50.17522       75.13230       44.75618
N         46.12630       73.00838       42.45574
C         44.70003       72.75966       42.20630
C         43.89825       73.15456       43.45032
O         44.26811       72.72481       44.53381
C         44.45999       71.24314       41.91817
C         45.37631       70.72091       40.78094
C         42.97244       71.00212       41.56323
C         45.30874       69.20018       40.60382
H         46.54686       72.55180       43.27812
H         44.34718       73.32163       41.31306
H         44.71383       70.67456       42.84015
H         46.43424       70.95201       41.02512
H         45.12277       71.22035       39.82277
H         42.75121       69.92654       41.42388
H         42.30201       71.35016       42.37364
H         42.70308       71.54412       40.62962
H         46.03336       68.88404       39.82472
H         45.57640       68.69448       41.55684
H         44.30424       68.86277       40.28095
N         42.74909       73.89308       43.36605
C         41.92114       74.22671       44.53345
C         40.56505       73.53786       44.46893
O         40.26865       72.86270       43.49636
C         41.73324       75.76005       44.66224
C         43.05818       76.48628       44.90634
O         41.05713       76.28853       43.54704
H         42.42114       74.18688       42.43799
H         42.40444       73.86038       45.46484
H         41.10904       75.97699       45.55443
H         41.70510       76.36807       42.80148
H         43.53497       76.10768       45.83480
H         43.74879       76.32078       44.05929
H         42.87196       77.57562       45.01942
N         39.69550       73.65132       45.51774
C         38.38178       73.00590       45.55699
C         37.39014       73.58867       44.55170
O         36.30919       73.02680       44.43525
C         37.76154       73.10055       46.97529
C         38.60314       72.35755       48.02093
O         37.62008       74.45094       47.33878
H         40.00737       74.18266       46.34281
H         38.51895       71.92699       45.31715
H         36.75938       72.61024       46.94829
H         36.95798       74.48486       48.07736
H         39.62024       72.78993       48.11234
H         38.10796       72.42188       49.01281
H         38.69190       71.28516       47.74509
N         37.66601       74.69308       43.79691
C         36.73209       75.24311       42.81478
C         37.22450       75.00271       41.40057
O         36.40267       74.99911       40.49398
C         36.48272       76.73678       43.09435
C         35.71442       76.91914       44.41150
C         35.54418       78.39570       44.78582
C         34.65672       78.52622       46.03314
N         34.54136       79.91901       46.46179
H         38.57103       75.16805       43.91037
H         35.75920       74.70563       42.86643
H         35.87510       77.18343       42.27675
H         37.46133       77.26654       43.13065
H         36.24893       76.41012       45.24302
H         34.71363       76.44839       44.29074
H         35.07216       78.95360       43.94774
H         36.54716       78.83325       44.98681
H         35.08428       77.92554       46.86643
H         33.64327       78.12825       45.79954
H         33.90126       79.96805       47.28750
H         35.48070       80.28357       46.74219
H         34.14731       80.50623       45.69157
N         38.53210       74.73882       41.13103
C         38.99553       74.29173       39.82665
C         38.50688       72.87366       39.60894
O         37.83285       72.61892       38.62060
C         40.53200       74.40655       39.74829
C         40.91990       75.89836       39.77423
C         42.39273       76.11087       39.65988
O         42.84557       76.75273       38.72587
O         43.21947       75.63791       40.60807
H         39.22909       74.81087       41.88339
H         38.58815       74.94524       39.02132
H         40.89706       73.96418       38.80083
H         41.00945       73.84785       40.58167
H         40.57441       76.37484       40.71389
H         40.41970       76.41450       38.92475
N         38.76019       71.90846       40.53522
C         38.24160       70.56342       40.42182
H         37.13152       70.58961       40.36756
H         38.65017       70.07046       39.51619
H         38.53047       69.97172       41.31750
H         39.30725       72.14412       41.37253
Ca        45.69652       76.87100       39.60973
O         43.44315       79.14605       40.82521
H         42.93420       79.20682       39.97868
H         42.84116       78.65524       41.43927
O         45.23720       77.32682       42.36168
H         45.70400       77.99977       42.91597
H         45.86983       76.56918       42.29637

Ca 1.0



