%chk=holoCaM-CaMKII.loop4.water2.frame93.chk
%nprocshared=20
%mem=10GB
%nosave
#b3lyp/svp scf=(tight,noincore,xqc) Test 
#IOP(5/87=12) Density=Current Pop=(MK,readradii) iop(6/33=2) iop(6/42=6)

holoCaM-CaMKII.loop4.water2.frame93 

   -3  1 
C         21.00300       38.78936       47.45242
C         22.18229       37.86464       47.49904
O         23.22655       38.23647       48.01163
H         20.15506       38.32976       48.00480
H         21.24413       39.76812       47.91619
H         20.69824       38.95114       46.39692
N         22.06348       36.61335       46.98706
C         23.12344       35.61324       47.02504
C         24.32107       36.05981       46.17967
O         24.13152       36.37092       45.01281
C         22.53744       34.27363       46.52255
C         23.40645       33.08600       46.78572
O         24.56964       33.21110       47.44115
O         23.02356       31.97990       46.44913
H         21.14856       36.35172       46.58467
H         23.42085       35.46501       48.08802
H         22.30772       34.34395       45.43734
H         21.59001       34.07188       47.06989
N         25.58379       36.09197       46.70707
C         26.77925       36.54295       45.97358
C         27.69719       35.36432       45.61212
O         28.59086       35.54682       44.79533
C         27.56278       37.59505       46.83724
C         26.66288       38.71556       47.41323
C         28.78854       38.20380       46.12843
C         26.01292       39.62447       46.37446
H         25.69865       35.76723       47.67332
H         26.45789       37.00146       45.01381
H         27.96218       37.05964       47.72143
H         27.26841       39.34525       48.10263
H         25.86350       38.25559       48.02294
H         29.54378       37.43332       45.88198
H         28.49712       38.73079       45.19791
H         29.29942       38.92021       46.80752
H         25.39145       40.38054       46.89962
H         26.78126       40.16300       45.78409
H         25.35787       39.04090       45.69711
N         27.54602       34.13495       46.17981
C         28.39320       32.97311       45.90496
C         27.60909       31.80447       45.30535
O         28.21993       30.79454       44.98936
C         29.17434       32.54580       47.18266
C         28.35725       32.22438       48.42565
O         28.92675       31.85171       49.43767
O         27.02460       32.41681       48.44447
H         26.79642       34.02128       46.86090
H         29.15962       33.23466       45.14084
H         29.86884       33.37221       47.45020
H         29.79839       31.66232       46.92484
N         26.26711       31.88078       45.07852
C         25.48559       30.83717       44.43962
C         25.46707       29.52767       45.19264
O         25.71915       28.50285       44.57380
H         25.75876       32.73840       45.31802
H         25.84996       30.67546       43.40140
H         24.43447       31.18907       44.36657
N         25.13756       29.47207       46.51550
C         24.92001       28.21346       47.22699
C         23.54673       28.21062       47.89971
O         23.36520       27.50998       48.88586
C         26.08983       27.90452       48.19516
C         26.23797       28.83069       49.36515
O         27.24896       28.64856       50.23490
O         25.43941       29.72463       49.55812
H         25.00241       30.35463       47.03075
H         24.92662       27.36219       46.51166
H         27.03550       27.92243       47.61174
H         25.96086       26.87899       48.60396
N         22.51361       28.94738       47.38879
C         21.17884       28.96635       47.96829
C         21.07332       29.67356       49.30952
O         19.99343       29.62798       49.88112
H         22.65347       29.47520       46.51641
H         20.82441       27.91778       48.06825
H         20.48645       29.49217       47.27535
N         22.11408       30.35709       49.87160
C         22.03894       31.00039       51.18231
C         22.21631       32.52471       51.05542
O         23.13196       32.95999       50.08224
C         23.06205       30.35362       52.14425
C         22.79928       28.84602       52.35752
C         21.49281       28.51730       53.05472
N         21.12663       27.22571       53.21855
O         20.76355       29.40147       53.47964
H         23.00748       30.41998       49.36623
H         21.03317       30.87930       51.62689
H         23.04020       30.85559       53.13597
H         24.07925       30.48311       51.72253
H         23.62180       28.42178       52.97176
H         22.81853       28.33794       51.37167
H         21.72190       26.46147       52.86812
H         20.23922       26.98923       53.68765
N         22.27870       33.23277       52.34648
C         22.49568       34.69025       52.28150
C         22.94175       35.12896       53.67340
O         22.13082       35.13421       54.59010
C         21.24156       35.51241       51.81760
C         21.59373       37.00585       51.69150
C         20.65202       35.04694       50.47577
H         21.41843       33.02194       52.90457
H         23.32133       34.88016       51.57059
H         20.43700       35.40515       52.57863
H         20.69563       37.59236       51.40093
H         21.95937       37.41339       52.65497
H         22.37558       37.15677       50.91599
H         21.41102       35.10104       49.66740
H         20.25239       34.01662       50.55127
H         19.78825       35.68633       50.19380
N         24.24514       35.44127       53.91370
C         24.76641       35.81489       55.22855
C         24.31584       37.22976       55.58632
O         23.67662       37.86687       54.77024
C         26.31611       35.70705       55.17165
C         27.01788       35.82337       56.49977
N         26.76715       34.93914       57.49305
O         27.84330       36.70670       56.67248
H         24.91154       35.34577       53.14031
H         24.39233       35.08048       55.97365
H         26.70881       36.46945       54.46372
H         26.58576       34.70564       54.77010
H         26.09088       34.17350       57.36115
H         27.25949       35.01401       58.39543
N         24.63750       37.80438       56.78085
C         24.37336       39.21537       57.07120
C         25.16011       40.08235       56.09923
O         24.59666       40.98241       55.49024
C         24.80221       39.54718       58.51855
C         24.45960       40.96840       58.91286
C         23.11863       41.39088       58.95173
C         25.47206       41.87920       59.26136
C         22.79709       42.69703       59.33194
C         25.14750       43.18643       59.64140
C         23.80736       43.59856       59.67953
O         23.47867       44.85272       60.05065
H         25.12235       37.23941       57.48972
H         23.28334       39.41374       56.97987
H         25.89472       39.36524       58.62464
H         24.28017       38.86489       59.22320
H         22.31881       40.70829       58.69505
H         26.51244       41.58006       59.24097
H         21.75982       43.00697       59.36068
H         25.93750       43.87699       59.90892
H         24.14500       45.50602       60.30736
N         26.47568       39.80498       55.87911
C         27.35709       40.51917       54.96231
C         26.73002       40.64203       53.58367
O         26.63150       41.74600       53.06869
C         28.70240       39.74601       54.86859
C         29.79825       40.45597       54.06179
C         30.26226       41.70640       54.75180
O         30.78892       41.63505       55.99034
O         30.18023       42.78711       54.19206
H         26.86972       38.99807       56.38400
H         27.54522       41.53672       55.37051
H         28.51278       38.75185       54.40573
H         29.09969       39.55671       55.89023
H         29.43806       40.67635       53.03361
H         30.67271       39.77477       53.97711
N         26.27744       39.53267       52.93705
C         25.69755       39.55851       51.59760
C         24.45897       40.44160       51.57045
O         24.43155       41.39363       50.80241
C         25.40316       38.11835       51.10248
C         26.70991       37.29263       51.02545
C         26.53575       35.92984       50.42052
O         27.23932       35.58256       49.48924
O         25.66940       35.05032       50.93961
H         26.35282       38.63344       53.43053
H         26.44223       39.98974       50.89064
H         24.95085       38.18190       50.09284
H         24.67429       37.61327       51.77334
H         27.12423       37.14552       52.04144
H         27.46182       37.84846       50.42355
N         23.41852       40.21190       52.41622
C         22.23821       41.04893       52.50010
H         21.33364       40.43385       52.31356
H         22.16949       41.48017       53.52235
H         22.25692       41.88599       51.77152
H         23.47442       39.41947       53.05993
Ca        25.33743       32.31318       49.99020
O         26.83172       31.39876       52.72166
H         26.52041       30.76675       52.02692
H         27.60268       30.94056       53.14071
O         28.66161       33.86796       51.72111
H         29.21100       33.05459       51.84918
H         29.16770       34.40630       51.06186

Ca 1.0



