%chk=holoCaM-CaMKII.loop2.water1.frame364.chk
%nprocshared=20
%mem=10GB
%nosave
#b3lyp/svp scf=(tight,noincore,xqc) Test 
#IOP(5/87=12) Density=Current Pop=(MK,readradii) iop(6/33=2) iop(6/42=6)

holoCaM-CaMKII.loop2.water1.frame364 

   -2  1 
C         43.10449       65.80107       39.72726
C         43.05420       65.39505       41.17321
O         43.62865       64.38042       41.54035
H         43.58347       66.80074       39.64047
H         43.68949       65.07571       39.12392
H         42.07374       65.86378       39.31934
N         42.38825       66.18047       42.06058
C         42.33376       65.92874       43.49633
C         41.61542       64.63708       43.84799
O         40.46759       64.46186       43.46522
C         41.64998       67.12433       44.19611
C         41.49750       66.96417       45.68795
O         42.57160       66.83244       46.49804
O         40.37827       66.98766       46.17313
H         41.94206       67.03635       41.69349
H         43.36979       65.86158       43.85344
H         40.63936       67.26168       43.75191
H         42.24092       68.04521       44.00076
N         42.23487       63.71920       44.64877
C         41.61796       62.48563       45.12140
C         41.51747       62.42205       46.65080
O         40.98141       61.43938       47.14425
C         42.46165       61.30456       44.62433
H         43.19687       63.91124       44.95503
H         40.59094       62.38681       44.70974
H         42.00945       60.33741       44.93018
H         42.53511       61.32406       43.51649
H         43.49076       61.36223       45.04527
N         42.05215       63.38301       47.46526
C         42.11453       63.27144       48.92576
C         41.59614       64.51313       49.66954
O         41.64657       64.51239       50.89220
C         43.56503       62.91501       49.32792
C         44.60367       63.77692       48.66683
O         44.57975       65.10522       48.81744
O         45.45782       63.27154       47.95666
H         42.53857       64.18430       47.04328
H         41.48848       62.42739       49.29059
H         43.76064       61.86604       49.01341
H         43.67654       62.95457       50.43274
N         41.03817       65.57791       49.02531
C         40.45114       66.73201       49.70527
C         41.42407       67.66472       50.42025
O         40.95014       68.63114       51.00131
H         40.93516       65.53235       48.00843
H         39.69212       66.36923       50.43354
H         39.91697       67.35040       48.95204
N         42.77217       67.45795       50.44746
C         43.69921       68.30129       51.21010
C         43.96936       69.68616       50.60194
O         44.74037       70.43002       51.19315
C         45.01843       67.54252       51.47674
C         45.87092       67.24690       50.27302
N         47.02816       66.57142       50.43865
O         45.53161       67.59998       49.15428
H         43.14105       66.61880       49.99223
H         43.26240       68.45134       52.22297
H         44.76843       66.57673       51.96936
H         45.63506       68.13366       52.18727
H         47.32676       66.25669       51.37276
H         47.62623       66.35943       49.63408
N         43.36049       70.12311       49.46195
C         43.52996       71.47188       48.93025
C         44.81394       71.73059       48.15150
O         44.94090       72.84071       47.65458
H         42.66043       69.52491       49.00533
H         43.41302       72.21415       49.75068
H         42.70616       71.65786       48.20776
N         45.78469       70.78745       47.96120
C         46.97519       71.01360       47.12770
C         47.06697       69.97600       46.01340
O         46.26780       69.05362       45.98959
C         48.26952       70.98320       47.98776
C         48.25553       72.04167       49.09571
O         48.52545       69.70470       48.51850
H         45.67106       69.87181       48.40640
H         46.91889       72.01215       46.64350
H         49.12821       71.23652       47.33032
H         47.76532       69.44907       49.09927
H         48.11395       73.05113       48.65302
H         47.43727       71.84737       49.82022
H         49.22360       72.03084       49.64014
N         48.06677       70.03739       45.08353
C         48.30541       68.99238       44.09159
C         49.54118       68.23645       44.53248
O         50.62680       68.79979       44.56890
C         48.43463       69.57575       42.64936
C         47.05288       70.09302       42.17077
C         48.99289       68.52179       41.66453
C         47.08234       70.77840       40.80086
H         48.74769       70.80957       45.13672
H         47.46426       68.26534       44.08037
H         49.16181       70.41766       42.67577
H         46.66429       70.83100       42.90401
H         46.33559       69.24279       42.12283
H         48.31316       67.64957       41.58776
H         49.15111       68.95056       40.65586
H         49.99465       68.17057       41.98601
H         47.77064       71.64889       40.82069
H         47.39146       70.08153       39.99568
H         46.06224       71.13459       40.54550
N         49.41638       66.93897       44.92253
C         50.52599       66.11853       45.38576
C         51.30420       65.58789       44.19437
O         50.93145       65.87146       43.06586
C         49.98461       64.93536       46.21867
C         49.20763       65.38321       47.42359
O         48.17394       66.01912       47.29277
O         49.63522       65.05401       48.65724
H         48.47740       66.51962       44.91702
H         51.18740       66.72120       46.04744
H         50.83732       64.32533       46.58188
H         49.32216       64.29821       45.59227
N         52.40238       64.79635       44.36884
C         53.11933       64.21111       43.24222
C         52.25235       63.18342       42.50947
O         52.18956       63.27873       41.29109
C         54.47681       63.60928       43.66445
C         55.32796       63.29253       42.45477
C         55.79152       64.33380       41.62680
C         55.67275       61.96736       42.14328
C         56.58221       64.05277       40.51041
C         56.46110       61.69049       41.02065
C         56.91608       62.73181       40.20634
H         52.74433       64.61839       45.32430
H         53.36787       65.04564       42.54955
H         54.33261       62.70780       44.28407
H         55.03827       64.34365       44.28145
H         55.54848       65.36578       41.84825
H         55.32646       61.14971       42.76242
H         56.93679       64.86051       39.88252
H         56.72042       60.66780       40.78144
H         57.52840       62.51636       39.34037
N         51.52259       62.19644       43.14056
C         50.63944       61.25847       42.44579
C         49.53077       61.89624       41.61608
O         48.81638       61.16587       40.94469
C         49.96053       60.47853       43.58287
C         51.01623       60.49373       44.65617
C         51.52145       61.92861       44.56588
H         51.28391       60.61111       41.81070
H         49.11443       61.08304       43.99175
H         49.56364       59.48099       43.29833
H         50.66277       60.19672       45.66714
H         51.83185       59.80722       44.33683
H         50.81440       62.62399       45.04907
H         52.50886       61.97016       45.05248
N         49.29571       63.23893       41.65876
C         48.21011       63.90818       40.95951
C         48.74245       64.84223       39.88273
O         47.97578       65.19454       38.99680
C         47.38531       64.69721       41.99454
C         46.82058       63.76917       43.08191
C         46.15065       64.50976       44.19796
O         45.60784       63.87470       45.08492
O         46.16710       65.85352       44.26981
H         49.86945       63.82635       42.26697
H         47.56499       63.15829       40.44966
H         46.55069       65.24069       41.49834
H         48.05686       65.44402       42.47324
H         47.62733       63.16465       43.54648
H         46.08670       63.08228       42.60800
N         50.03454       65.28354       39.88485
C         50.61070       66.11640       38.85315
H         51.50194       65.59986       38.43656
H         49.90204       66.31665       38.02444
H         50.93460       67.08063       39.29721
H         50.66368       65.03946       40.65415
Ca        44.62578       66.80741       45.58943
O         43.54541       69.42053       46.49286
H         43.74779       69.87246       45.63707
H         42.56435       69.49535       46.59069

Ca 1.0



