%chk=holoCaM.loop1.water2.frame497.chk
%nprocshared=20
%mem=10GB
%nosave
#b3lyp/svp scf=(tight,noincore,xqc) Test 
#IOP(5/87=12) Density=Current Pop=(MK,readradii) iop(6/33=2) iop(6/42=6)

holoCaM.loop1.water2.frame497 

   0  1 
C         79.69213       86.65773       13.20193
C         78.61588       87.62905       12.82491
O         78.44903       87.89924       11.64903
H         80.42964       87.17215       13.85461
H         79.25180       85.80109       13.75299
H         80.21734       86.28036       12.29944
N         77.84084       88.17868       13.79905
C         76.80431       89.19783       13.60746
C         77.48004       90.52663       13.25261
O         77.73655       91.34823       14.12049
C         75.96899       89.21812       14.90722
C         74.82828       90.17805       15.01961
O         73.76068       90.11143       14.20899
O         74.77917       90.90397       15.99540
H         78.01489       87.84032       14.75960
H         76.10227       88.89756       12.79596
H         76.64640       89.39771       15.76839
H         75.52530       88.20379       15.02472
N         77.88375       90.72705       11.96819
C         78.69946       91.83183       11.46164
C         78.01866       93.18919       11.55523
O         78.71725       94.18662       11.67351
C         79.05146       91.49794        9.99456
C         79.98369       92.48186        9.28342
C         80.36097       91.88948        7.91591
C         81.20174       92.82157        7.03708
N         80.45596       94.01971        6.64479
H         77.62862       89.99688       11.29685
H         79.64974       91.85946       12.03967
H         78.11190       91.41349        9.40084
H         79.54454       90.49958       10.00088
H         80.90857       92.63721        9.87961
H         79.45613       93.45080        9.16315
H         79.44129       91.61929        7.35112
H         80.93968       90.95420        8.08799
H         81.46609       92.24955        6.12021
H         82.14815       93.10626        7.54852
H         79.48513       93.76873        6.34527
H         80.41680       94.69905        7.43765
H         80.94127       94.47387        5.83809
N         76.66349       93.29899       11.49881
C         75.93749       94.56969       11.56278
C         75.22973       94.76241       12.90386
O         74.66706       95.82856       13.11306
C         74.99964       94.74958       10.33707
C         73.96565       93.67225       10.11293
O         73.93077       92.56830       10.86786
O         73.17184       93.77943        9.19420
H         76.13339       92.42487       11.43849
H         76.65934       95.41646       11.51945
H         75.62228       94.79851        9.41783
H         74.47327       95.72493       10.43712
N         75.31117       93.83460       13.90074
C         74.88269       94.09020       15.26664
C         73.39429       94.26056       15.42843
O         72.97530       95.29079       15.93636
H         75.79137       92.94253       13.73049
H         75.41918       94.98374       15.65277
H         75.19384       93.24310       15.90401
N         72.53725       93.26863       15.05847
C         71.09200       93.33239       15.27250
C         70.56485       92.18783       16.14555
O         69.38341       92.21054       16.46181
C         70.36494       93.45508       13.91303
C         70.57820       92.33865       12.92743
O         71.29582       91.25093       13.23979
O         70.09616       92.42977       11.81062
H         72.93686       92.44166       14.59932
H         70.83853       94.25976       15.83074
H         70.73191       94.38681       13.43142
H         69.27227       93.56311       14.08299
N         71.36332       91.16701       16.58283
C         70.91095       90.08774       17.45083
C         70.81563       88.76046       16.72354
O         70.51232       87.76994       17.37353
H         72.34297       91.12296       16.28848
H         69.90314       90.29653       17.87129
H         71.61560       90.00771       18.30705
N         70.95405       88.67907       15.36687
C         70.66137       87.47722       14.59237
C         71.71144       87.21788       13.51387
O         72.57865       88.04261       13.28499
C         69.25551       87.62448       13.95254
C         68.13327       87.62003       15.00257
O         69.17772       88.78412       13.16030
H         71.13911       89.53623       14.84167
H         70.65522       86.58674       15.25876
H         69.06128       86.75161       13.29528
H         69.10216       89.57259       13.76154
H         67.14888       87.70399       14.49584
H         68.15610       86.67056       15.57762
H         68.23295       88.47110       15.70890
N         71.70016       86.03819       12.83238
C         72.67560       85.65652       11.81229
C         71.95017       85.21607       10.54266
O         71.09617       84.34285       10.60404
C         73.61331       84.54936       12.39721
C         74.60252       85.22065       13.39714
C         74.38266       83.79216       11.30029
C         75.62037       84.27377       14.03464
H         70.99235       85.33575       13.09549
H         73.33349       86.51076       11.53424
H         72.99473       83.78615       12.91915
H         74.02476       85.69953       14.21534
H         75.17995       86.01688       12.87320
H         75.03916       84.47231       10.73206
H         74.99241       82.97552       11.73303
H         73.67697       83.28675       10.61233
H         76.24980       84.84319       14.75113
H         75.10401       83.45428       14.57425
H         76.30811       83.85015       13.27340
N         72.31954       85.74180        9.33617
C         71.81031       85.28628        8.04401
C         72.68276       84.16121        7.50224
O         73.64975       83.78506        8.14442
C         71.76492       86.46350        7.02647
C         70.83968       87.59513        7.48470
O         73.06030       86.94135        6.74294
H         73.10649       86.39743        9.32497
H         70.78052       84.88416        8.16656
H         71.33925       86.10547        6.06689
H         73.29761       87.64130        7.40332
H         70.82304       88.40072        6.71963
H         69.80637       87.21485        7.62613
H         71.20978       88.01918        8.43688
N         72.38822       83.57339        6.30835
C         73.17801       82.49466        5.71410
C         74.61084       82.94304        5.47404
O         75.52657       82.23071        5.85870
C         72.52993       82.02700        4.38834
C         73.27336       80.82382        3.79110
O         71.19866       81.65523        4.63884
H         71.55783       83.90750        5.79761
H         73.17656       81.62277        6.40742
H         72.55164       82.87682        3.66582
H         70.73538       81.63447        3.76100
H         73.25030       79.96943        4.50167
H         72.78350       80.51131        2.84533
H         74.32974       81.07626        3.56350
N         74.87081       84.12188        4.84342
C         76.21772       84.63456        4.60372
C         76.97701       84.78798        5.91864
O         78.07032       84.25150        6.03315
C         76.12279       85.96466        3.81486
C         77.48732       86.51824        3.36915
C         77.30953       87.74366        2.45492
C         78.66246       88.28329        1.96700
N         78.48441       89.45597        1.10889
H         74.06554       84.68875        4.53454
H         76.76378       83.91354        3.95412
H         75.57866       86.73194        4.40866
H         75.53215       85.75647        2.89437
H         78.03169       85.73117        2.80292
H         78.08767       86.79965        4.26132
H         76.76962       88.54327        3.00702
H         76.70368       87.45487        1.56675
H         79.19191       87.48933        1.39401
H         79.28979       88.56378        2.84146
H         77.89767       89.21342        0.27752
H         78.03023       90.22939        1.64698
H         79.42041       89.78275        0.77575
N         76.44149       85.48228        6.96452
C         77.13181       85.66503        8.24711
C         77.37399       84.35173        8.99473
O         78.16009       84.35864        9.93217
C         76.32461       86.60885        9.16930
C         76.16453       88.02007        8.58018
C         75.28923       88.89623        9.43368
O         75.74018       90.08532        9.86276
O         74.14423       88.56791        9.69314
H         75.51013       85.89967        6.82939
H         78.12254       86.12651        8.03879
H         76.81594       86.68842       10.16126
H         75.32502       86.16067        9.31974
H         75.69479       87.96648        7.58025
H         77.16660       88.48718        8.46824
N         76.71106       83.20555        8.67355
C         76.89368       81.93770        9.35264
H         77.67151       81.98433       10.14242
H         75.93458       81.62670        9.81815
H         77.18806       81.16474        8.61176
H         76.01423       83.22683        7.92850
Ca        73.77782       90.70126       12.06433
O         70.40514       89.13571       10.61493
H         69.81568       89.22536        9.82567
H         70.17939       89.92453       11.16416
O         72.10233       90.79779        8.76521
H         71.28578       90.58636        8.24726
H         72.65680       91.32956        8.14173

Ca 1.0



