%chk=holoCaM.loop4.water3.frame239.chk
%nprocshared=20
%mem=10GB
%nosave
#b3lyp/svp scf=(tight,noincore,xqc) Test 
#IOP(5/87=12) Density=Current Pop=(MK,readradii) iop(6/33=2) iop(6/42=6)

holoCaM.loop4.water3.frame239 

   -3  1 
C         37.95665       72.24440       48.52223
C         37.23794       73.23632       49.38574
O         36.74256       74.22141       48.85922
H         39.00342       72.12070       48.86524
H         37.42943       71.26836       48.57452
H         37.96147       72.58118       47.46210
N         37.13780       73.03987       50.73314
C         36.36122       73.92214       51.60047
C         36.60630       73.61064       53.07816
O         36.45917       72.46983       53.49359
C         34.86251       73.79112       51.25576
C         34.01211       74.68073       52.10693
O         33.03991       74.14398       52.86789
O         34.19361       75.88784       52.10915
H         37.61820       72.22427       51.14390
H         36.67550       74.97335       51.41291
H         34.53824       72.73635       51.38797
H         34.68311       74.07563       50.19867
N         36.94942       74.62326       53.92924
C         37.25232       74.47282       55.35606
C         36.19506       75.15825       56.23809
O         36.21692       74.95139       57.44292
C         38.65848       75.13507       55.61249
C         39.75241       74.46328       54.74190
C         39.07785       75.16216       57.09924
C         41.09810       75.19548       54.78217
H         37.00965       75.57122       53.53511
H         37.26153       73.39480       55.62878
H         38.57905       76.19859       55.28870
H         39.43124       74.47398       53.68028
H         39.89186       73.40541       55.04982
H         39.15700       74.13420       57.50732
H         40.04043       75.68993       57.23831
H         38.37587       75.75920       57.71136
H         41.56236       75.15845       55.78724
H         41.80653       74.71319       54.07728
H         40.96177       76.25588       54.47973
N         35.30587       76.05490       55.72788
C         34.55248       76.99426       56.56576
C         33.11550       77.25013       56.09245
O         32.41209       77.98188       56.77607
C         35.34606       78.32876       56.68437
C         35.67816       78.98953       55.36877
O         35.43345       78.34825       54.21470
O         36.20172       80.09150       55.35186
H         35.32435       76.20687       54.72044
H         34.46748       76.59347       57.59980
H         36.30737       78.14401       57.21174
H         34.75537       79.03700       57.30544
N         32.59414       76.68026       54.96785
C         31.20669       76.83733       54.54125
C         30.78868       78.23328       54.08841
O         29.61664       78.39263       53.77815
H         33.17433       76.04028       54.42184
H         30.54893       76.52105       55.38061
H         31.01644       76.14844       53.69030
N         31.64675       79.29193       54.04038
C         31.21091       80.66102       53.72886
C         30.66312       80.87977       52.31591
O         29.93970       81.84978       52.13901
C         32.34060       81.67789       54.02760
C         33.61360       81.40279       53.27485
O         33.66456       80.39185       52.39318
O         34.62443       82.03271       53.53623
H         32.62571       79.13688       54.31619
H         30.38116       80.90004       54.43079
H         32.58275       81.59241       55.10927
H         32.00222       82.71686       53.82880
N         31.02029       80.10356       51.25307
C         30.53971       80.33858       49.89273
C         31.60707       80.90410       48.96733
O         31.34457       80.99183       47.77525
H         31.68400       79.33237       51.39615
H         29.68576       81.04879       49.87075
H         30.16936       79.36965       49.49367
N         32.81070       81.34363       49.43520
C         33.88032       81.89034       48.60811
C         35.11860       81.01224       48.71956
O         35.07628       80.00571       49.41694
C         34.20745       83.33619       49.04883
C         32.98845       84.26668       48.96813
C         33.38121       85.70628       49.19734
N         33.95365       86.10372       50.35792
O         33.18024       86.52715       48.31444
H         32.98939       81.31130       50.43852
H         33.57855       81.91197       47.53757
H         34.99195       83.74413       48.37727
H         34.60486       83.33518       50.08811
H         32.22755       83.96300       49.71943
H         32.53543       84.18122       47.95604
H         34.13447       85.43394       51.11877
H         34.22205       87.09021       50.49386
N         36.25919       81.32175       48.04020
C         37.46354       80.49929       48.06459
C         38.62292       81.30707       48.64080
O         38.96956       82.34274       48.08759
C         37.75508       79.98270       46.62657
C         39.03796       79.14056       46.56499
C         36.57937       79.13422       46.10788
H         36.27480       82.16665       47.44757
H         37.31314       79.60345       48.70696
H         37.88217       80.85353       45.94561
H         39.91597       79.74779       46.85950
H         38.96134       78.25666       47.23253
H         39.21563       78.78724       45.52663
H         35.63864       79.72296       46.08809
H         36.77958       78.78584       45.07251
H         36.42443       78.24427       46.75315
N         39.28766       80.85886       49.74653
C         40.47660       81.49585       50.31785
C         41.71125       80.93367       49.62914
O         41.56668       80.04642       48.80808
C         40.43600       81.28013       51.85930
C         41.55531       81.86304       52.68908
N         41.32103       82.89255       53.53717
O         42.67069       81.37037       52.64341
H         39.00408       79.95043       50.14147
H         40.45008       82.58906       50.11330
H         40.36835       80.19454       52.09543
H         39.50342       81.75764       52.20581
H         40.38496       83.31614       53.61550
H         42.08201       83.27200       54.11959
N         42.95599       81.43241       49.85858
C         44.15525       80.92072       49.19838
C         44.39462       79.44770       49.51777
O         44.51510       78.65965       48.58995
C         45.38424       81.74781       49.62231
C         46.62729       81.30912       48.88744
C         46.72847       81.47865       47.49552
C         47.69334       80.72261       49.58725
C         47.87943       81.06946       46.81681
C         48.84088       80.30895       48.90576
C         48.93839       80.48304       47.51743
O         50.04150       80.09199       46.84867
H         43.05233       82.23660       50.49390
H         44.02262       81.03811       48.09926
H         45.52095       81.64214       50.72083
H         45.21178       82.82538       49.41071
H         45.91951       81.93197       46.93599
H         47.63320       80.57685       50.65861
H         47.94757       81.20874       45.74507
H         49.65247       79.85324       49.45820
H         50.79595       79.68370       47.29671
N         44.47908       79.00898       50.81047
C         44.75029       77.61408       51.18459
C         43.71085       76.60802       50.68079
O         43.92348       75.41612       50.85755
C         44.91402       77.48222       52.71791
C         43.62155       77.78107       53.50008
C         43.84740       77.66400       54.97953
O         43.64870       78.73061       55.77753
O         44.20178       76.60281       55.46809
H         44.38475       79.71215       51.55567
H         45.72517       77.33784       50.72481
H         45.71622       78.17759       53.04984
H         45.24600       76.44689       52.95647
H         42.82593       77.06851       53.20203
H         43.26575       78.80675       53.27823
N         42.59165       77.00536       50.01773
C         41.61953       76.10588       49.41907
C         41.91618       76.04048       47.93119
O         42.15327       74.95595       47.41814
C         40.19682       76.62889       49.71378
C         39.92718       76.69090       51.23009
C         38.62259       77.34848       51.58408
O         38.31264       77.53999       52.87861
O         37.85993       77.75122       50.72282
H         42.42582       78.00361       49.87137
H         41.71194       75.07539       49.83139
H         39.43825       75.97904       49.22415
H         40.10143       77.65420       49.29501
H         40.72018       77.29112       51.72180
H         39.94684       75.66289       51.64919
N         41.99661       77.17868       47.18941
C         42.39512       77.19291       45.80129
H         43.41171       76.75571       45.69811
H         41.67000       76.62311       45.18715
H         42.43384       78.24311       45.43647
H         41.81228       78.08061       47.63190
Ca        35.46459       79.14815       52.16011
O         33.02696       77.61132       50.13930
H         32.32569       77.04703       50.55166
H         32.78786       77.64477       49.17979
O         35.63321       76.91671       49.16701
H         36.52795       76.87770       48.74655
H         35.01824       76.59381       48.46245
O         37.24378       81.14377       51.96337
H         37.16360       81.09032       52.94941
H         36.48487       81.70475       51.66965

Ca 1.0



