%chk=holoCaM-CaMKII.loop4.water2.frame99.chk
%nprocshared=20
%mem=10GB
%nosave
#b3lyp/svp scf=(tight,noincore,xqc) Test 
#IOP(5/87=12) Density=Current Pop=(MK,readradii) iop(6/33=2) iop(6/42=6)

holoCaM-CaMKII.loop4.water2.frame99 

   -3  1 
C         34.38420       32.49132       50.06422
C         35.17277       31.60130       50.97660
O         36.28743       31.94150       51.33824
H         33.43236       32.78048       50.55685
H         34.95636       33.40748       49.80903
H         34.15345       31.94113       49.12653
N         34.63798       30.42015       51.37929
C         35.32457       29.45384       52.22918
C         36.61516       28.97118       51.57668
O         36.57903       28.52150       50.43995
C         34.36420       28.28169       52.51017
C         35.02687       27.17567       53.26048
O         35.02759       26.04757       52.80169
O         35.64876       27.42493       54.42023
H         33.68561       30.19613       51.04815
H         35.56593       29.92504       53.20867
H         33.96532       27.87047       51.55742
H         33.50978       28.66371       53.11101
N         37.79033       29.00588       52.27636
C         39.08036       28.58724       51.73415
C         39.52653       27.30265       52.42039
O         39.71994       26.31308       51.72694
C         40.13189       29.73303       51.89032
C         39.64603       31.01134       51.15917
C         41.51043       29.28672       51.35988
C         40.54344       32.23477       51.36361
H         37.77105       29.33230       53.25380
H         38.98578       28.36198       50.64740
H         40.23778       29.97146       52.97202
H         38.65361       31.29025       51.55892
H         39.54205       30.81149       50.07008
H         41.87171       28.38907       51.90294
H         41.45493       29.05057       50.27585
H         42.27742       30.07044       51.51956
H         41.55103       32.08457       50.92839
H         40.08771       33.11094       50.85498
H         40.63874       32.46769       52.44483
N         39.72790       27.23864       53.77039
C         40.21707       26.02958       54.44152
C         39.25447       24.83190       54.38690
O         39.63190       23.77402       54.87163
C         40.64661       26.33881       55.89639
C         39.54632       26.77156       56.82539
O         38.39420       26.87909       56.44027
O         39.84465       27.04076       58.11010
H         39.59080       28.09648       54.32531
H         41.15173       25.72065       53.92197
H         41.41656       27.14119       55.87483
H         41.12243       25.43207       56.32914
N         38.03335       24.89145       53.78003
C         37.16738       23.73252       53.60921
C         36.51620       23.27799       54.89503
O         36.63287       22.11379       55.24815
H         37.71615       25.76967       53.35110
H         37.72920       22.90929       53.11644
H         36.34269       24.00511       52.92221
N         35.77514       24.15827       55.62299
C         35.01136       23.81993       56.82333
C         33.53941       24.23371       56.70751
O         32.81387       24.06637       57.67819
C         35.69025       24.42130       58.07731
C         35.87372       25.91781       58.09513
O         35.44164       26.68295       57.07826
O         36.48354       26.43209       59.01752
H         35.75863       25.13083       55.29889
H         35.01879       22.71886       56.98670
H         36.70219       23.96527       58.14762
H         35.12212       24.11544       58.98282
N         33.00826       24.72331       55.54632
C         31.59771       25.05031       55.38804
C         31.16557       26.36142       56.02057
O         29.99132       26.68020       55.88562
H         33.59028       24.78119       54.70064
H         30.97636       24.20707       55.76231
H         31.38522       25.15638       54.30161
N         32.02463       27.19366       56.68060
C         31.62663       28.49934       57.21243
C         32.44891       29.61042       56.58228
O         33.35997       29.31474       55.81766
C         31.81318       28.53565       58.74154
C         30.95731       27.48280       59.45594
C         31.02030       27.66047       60.95198
N         32.19042       27.54680       61.62265
O         29.99557       27.91495       61.56730
H         33.00620       26.91193       56.79664
H         30.55890       28.70848       56.98199
H         31.50575       29.53676       59.11333
H         32.88678       28.38532       58.99281
H         31.29843       26.46017       59.18545
H         29.90094       27.59909       59.12753
H         33.06691       27.32910       61.12798
H         32.21884       27.67845       62.64488
N         32.18163       30.92417       56.85915
C         32.99784       32.02165       56.35058
C         33.51502       32.83909       57.52926
O         32.73022       33.52913       58.16798
C         32.19635       32.92815       55.36883
C         33.12439       33.95252       54.69165
C         31.47723       32.11518       54.28260
H         31.37469       31.15696       57.45959
H         33.86073       31.60453       55.78609
H         31.40933       33.47352       55.93636
H         33.62796       34.58886       55.44297
H         33.90167       33.43489       54.08728
H         32.54389       34.62018       54.02030
H         30.90702       32.79896       53.61605
H         32.20026       31.53524       53.67148
H         30.74434       31.41818       54.74097
N         34.82755       32.79586       57.88659
C         35.40961       33.62279       58.94661
C         35.48368       35.07748       58.47929
O         35.12832       35.34289       57.34645
C         36.81391       33.05224       59.28170
C         37.55237       33.75983       60.38929
N         37.02148       33.86287       61.63028
O         38.65122       34.24291       60.16216
H         35.43791       32.13739       57.38648
H         34.77517       33.54387       59.85615
H         37.44007       33.06521       58.36110
H         36.68892       31.99279       59.59400
H         36.09618       33.46599       61.84619
H         37.53431       34.35691       62.37588
N         35.93183       36.08015       59.28755
C         36.13034       37.45270       58.82078
C         37.23715       37.49927       57.77093
O         37.00814       38.01218       56.68473
C         36.49731       38.36584       60.00922
C         36.64587       39.81255       59.59701
C         35.54804       40.52779       59.08536
C         37.88406       40.46203       59.72928
C         35.68859       41.86851       58.71438
C         38.02254       41.80196       59.35578
C         36.92381       42.51047       58.84831
O         37.04250       43.80469       58.48946
H         36.14424       35.86726       60.26992
H         35.17641       37.82883       58.38831
H         37.43790       37.99525       60.47205
H         35.70040       38.30612       60.78205
H         34.58136       40.05193       58.97850
H         38.74388       39.93171       60.11915
H         34.83520       42.40978       58.32484
H         38.98374       42.28821       59.46303
H         37.87785       44.28666       58.57136
N         38.46502       36.95880       58.03534
C         39.58741       36.93719       57.08728
C         39.30668       36.13003       55.81129
O         40.15334       36.13234       54.92862
C         40.85756       36.39839       57.78796
C         41.34772       37.36709       58.88014
C         42.54042       36.81384       59.60325
O         42.42862       35.67574       60.31476
O         43.60903       37.40302       59.57076
H         38.60528       36.54685       58.96897
H         39.79559       37.98088       56.76272
H         41.68363       36.29007       57.05060
H         40.64076       35.39357       58.21527
H         40.55508       37.56336       59.63101
H         41.61670       38.33479       58.39987
N         38.12765       35.47935       55.61241
C         37.72034       34.84869       54.36270
C         36.76227       35.78626       53.64055
O         36.98053       36.04772       52.46577
C         37.11873       33.45642       54.66300
C         38.24681       32.49289       55.07360
C         37.80328       31.12943       55.51652
O         38.65388       30.29279       55.77057
O         36.50741       30.81267       55.68949
H         37.42695       35.48388       56.35705
H         38.58002       34.70570       53.66838
H         36.63406       33.04301       53.75275
H         36.34477       33.54552       55.45621
H         38.83546       32.92565       55.90998
H         38.91672       32.36757       54.19586
N         35.74418       36.40836       54.29768
C         34.87773       37.40261       53.70012
H         33.82014       37.09392       53.82600
H         35.02781       38.37261       54.22358
H         35.08523       37.55489       52.62142
H         35.60044       36.22419       55.28992
Ca        36.11116       28.80988       56.67145
O         38.43074       29.93166       58.50572
H         39.10121       30.65908       58.53611
H         38.79993       29.22564       59.09156
O         35.65353       29.22164       59.84329
H         36.53095       29.42233       60.25458
H         35.32317       28.43653       60.34727

Ca 1.0



