%chk=holoCaM.loop1.water2.frame128.chk
%nprocshared=20
%mem=10GB
%nosave
#b3lyp/svp scf=(tight,noincore,xqc) Test 
#IOP(5/87=12) Density=Current Pop=(MK,readradii) iop(6/33=2) iop(6/42=6)

holoCaM.loop1.water2.frame128 

   0  1 
C          2.17869       75.19462      -12.39756
C          3.06172       74.09091      -12.88773
O          3.29805       73.98812      -14.08273
H          1.27150       74.73568      -11.94962
H          2.70177       75.79456      -11.62377
H          1.86896       75.85649      -13.23270
N          3.58416       73.21037      -11.99564
C          4.35050       72.03919      -12.39296
C          3.39265       71.03860      -13.04608
O          2.50942       70.51225      -12.38409
C          5.05681       71.48304      -11.14369
C          5.81920       70.20158      -11.27554
O          5.74118       69.44107      -10.32976
O          6.15422       69.66001      -12.45377
H          3.40884       73.37987      -10.99198
H          5.15122       72.35114      -13.10246
H          4.27235       71.30219      -10.37511
H          5.74550       72.25194      -10.73246
N          3.47950       70.81074      -14.38231
C          2.61912       69.92350      -15.16462
C          2.94524       68.45574      -14.95093
O          2.03482       67.64708      -14.83419
C          2.83729       70.19379      -16.67459
C          2.27977       71.53237      -17.19743
C          0.74658       71.60131      -17.04151
C          0.06996       72.60925      -17.98291
N          0.44074       73.99528      -17.71013
H          4.17814       71.36112      -14.88911
H          1.54677       70.09795      -14.93752
H          2.33017       69.39661      -17.26304
H          3.92079       70.12515      -16.91626
H          2.52524       71.54932      -18.28157
H          2.76976       72.41032      -16.72183
H          0.47350       71.80724      -15.98364
H          0.32249       70.61325      -17.32255
H         -1.03185       72.50231      -17.86802
H          0.32543       72.35109      -19.03505
H         -0.06228       74.60918      -18.39217
H          0.14923       74.25939      -16.74168
H          1.46858       74.13463      -17.83254
N          4.23997       68.04570      -14.99113
C          4.68164       66.65270      -15.02584
C          5.24386       66.17019      -13.68556
O          5.68001       65.02982      -13.60964
C          5.59813       66.42269      -16.26158
C          6.82483       67.29691      -16.39103
O          7.53804       67.18129      -17.37360
O          7.10115       68.26404      -15.50402
H          4.94644       68.78659      -15.00970
H          3.80768       65.98178      -15.18959
H          4.98123       66.61612      -17.16875
H          5.91451       65.35849      -16.29566
N          5.07998       66.91193      -12.55034
C          5.22858       66.38295      -11.19729
C          6.63415       66.24824      -10.64415
O          6.74988       65.87763       -9.48427
H          4.62382       67.82879      -12.62617
H          4.70239       65.40724      -11.13067
H          4.69842       67.07860      -10.51374
N          7.74253       66.52833      -11.37599
C          9.10703       66.40210      -10.84483
C          9.44207       67.33844       -9.66862
O         10.48873       67.12972       -9.06912
C         10.15304       66.56576      -11.97860
C          9.82781       67.69284      -12.91878
O          9.69488       67.47810      -14.11231
O          9.57367       68.91495      -12.44842
H          7.60051       66.79671      -12.35755
H          9.22699       65.37188      -10.43911
H         10.17484       65.63805      -12.58801
H         11.16813       66.70461      -11.54611
N          8.64893       68.37811       -9.27960
C          8.98558       69.26543       -8.16525
C          9.71370       70.52908       -8.59965
O         10.13764       71.28311       -7.73583
H          7.81914       68.59290       -9.83250
H          9.61778       68.72425       -7.42872
H          8.05607       69.55183       -7.62635
N          9.91961       70.80931       -9.91555
C         10.60194       71.99332      -10.43237
C          9.78132       72.63397      -11.54544
O          8.85132       72.02219      -12.05431
C         12.02417       71.63724      -10.95037
C         12.98230       71.26307       -9.81414
O         11.98924       70.61747      -11.91253
H          9.55199       70.15124      -10.59551
H         10.70754       72.74645       -9.62238
H         12.46507       72.53228      -11.43885
H         11.61205       69.80606      -11.48721
H         13.09937       72.13070       -9.13035
H         12.60835       70.39205       -9.23718
H         13.98246       71.01262      -10.22941
N         10.05364       73.91213      -11.93195
C          9.29276       74.63850      -12.94427
C         10.25728       75.17552      -14.00479
O         11.21314       75.86160      -13.67166
C          8.40009       75.71350      -12.24633
C          7.33086       74.97046      -11.38112
C          7.72050       76.62983      -13.27952
C          6.31469       75.86369      -10.66970
H         10.79875       74.42389      -11.43398
H          8.57903       73.96260      -13.46211
H          9.02983       76.35884      -11.59460
H          7.84602       74.37320      -10.59912
H          6.75316       74.26761      -12.02307
H          7.12309       77.41738      -12.77654
H          8.47998       77.16163      -13.88846
H          7.05515       76.04697      -13.94493
H          5.64074       75.22761      -10.05492
H          6.82775       76.58950      -10.00718
H          5.67375       76.39995      -11.39938
N         10.02959       74.89279      -15.32176
C         10.88107       75.27924      -16.44544
C         10.34456       76.52281      -17.12628
O          9.33001       77.06220      -16.70948
C         10.90160       74.14201      -17.51970
C         11.49671       72.82559      -17.02758
O          9.61254       73.93832      -18.04811
H          9.16461       74.40224      -15.55014
H         11.91313       75.49679      -16.09290
H         11.54511       74.43873      -18.37213
H          9.15334       73.25368      -17.50383
H         10.90227       72.44566      -16.17647
H         11.45490       72.08249      -17.85600
H         12.55293       72.96546      -16.72465
N         10.99317       77.01879      -18.21833
C         10.47261       78.10483      -19.03959
C          9.22817       77.66462      -19.82810
O          8.46450       78.52954      -20.23294
C         11.56932       78.63276      -19.99803
C         12.76793       79.20010      -19.21161
O         11.99538       77.59094      -20.84051
H         11.89121       76.58995      -18.48401
H         10.18510       78.94050      -18.36143
H         11.13412       79.45431      -20.61081
H         12.61049       77.98870      -21.51002
H         13.25349       78.42415      -18.58282
H         13.53292       79.59351      -19.91354
H         12.43999       80.03232      -18.55325
N          8.97751       76.34724      -20.11510
C          7.74977       75.87370      -20.77043
C          6.58547       75.79966      -19.78587
O          5.45999       75.60758      -20.22602
C          7.93477       74.44256      -21.33377
C          8.72252       74.33093      -22.64574
C         10.12534       74.94168      -22.64177
C         10.82764       74.60140      -23.96539
N         12.13550       75.24393      -24.05842
H          9.67941       75.64782      -19.84240
H          7.47476       76.56188      -21.60119
H          6.94005       74.00760      -21.58136
H          8.38389       73.79617      -20.54818
H          8.13623       74.81542      -23.45802
H          8.79646       73.24502      -22.87739
H         10.72360       74.53885      -21.79668
H         10.03939       76.04538      -22.53828
H         10.20117       74.93385      -24.82340
H         10.95314       73.49681      -24.03432
H         12.58739       74.95796      -24.95732
H         12.02010       76.28338      -24.05461
H         12.74315       74.94813      -23.26094
N          6.78634       75.88498      -18.44309
C          5.73845       75.77707      -17.43618
C          5.60202       77.07914      -16.66738
O          4.74999       77.14275      -15.79158
C          6.12213       74.66934      -16.43052
C          6.28622       73.29814      -17.09145
C          6.81083       72.26890      -16.13322
O          6.17395       71.09752      -16.01156
O          7.84780       72.44815      -15.51778
H          7.74079       76.00737      -18.09670
H          4.75603       75.54219      -17.90291
H          5.37282       74.59723      -15.61409
H          7.08793       74.96797      -15.97758
H          7.00084       73.37501      -17.92982
H          5.31342       72.95746      -17.50152
N          6.41455       78.14989      -16.91246
C          6.38541       79.36485      -16.13152
H          6.13840       80.21977      -16.79234
H          5.64906       79.31747      -15.30344
H          7.39187       79.52497      -15.68922
H          7.11536       78.12102      -17.66470
Ca         7.64786       69.90724      -14.07809
O         10.99339       70.41389      -14.68971
H         11.48070       70.28424      -15.53995
H         11.40794       69.74933      -14.09031
O          9.17607       70.22151      -17.14347
H          8.45010       69.59435      -16.92147
H          8.91722       70.56976      -18.03135

Ca 1.0



