%chk=holoCaM.loop2.water3.frame387.chk
%nprocshared=20
%mem=10GB
%nosave
#b3lyp/svp scf=(tight,noincore,xqc) Test 
#IOP(5/87=12) Density=Current Pop=(MK,readradii) iop(6/33=2) iop(6/42=6)

holoCaM.loop2.water3.frame387 

   -2  1 
C        112.12502       82.54677       97.86268
C        112.11689       83.09653       99.25932
O        111.66044       82.40744      100.15984
H        112.56304       83.27079       97.14325
H        112.72737       81.61464       97.83321
H        111.08564       82.32049       97.54641
N        112.61417       84.33915       99.51264
C        112.65924       84.93973      100.83834
C        111.85513       86.22937      100.82191
O        112.12256       87.08685       99.99077
C        114.12710       85.18964      101.21582
C        114.30269       85.68843      102.62235
O        113.25548       85.87675      103.44610
O        115.42384       85.90458      103.03520
H        112.99584       84.88852       98.72638
H        112.23994       84.24309      101.59849
H        114.58108       85.91427      100.50534
H        114.68434       84.23023      101.13393
N        110.83271       86.42368      101.70368
C        109.95586       87.59219      101.65644
C        110.66426       88.93149      101.87818
O        110.05695       89.95060      101.58170
C        108.81910       87.43202      102.67447
H        110.63313       85.68061      102.39018
H        109.50746       87.61283      100.63853
H        108.10032       88.27447      102.60121
H        108.26804       86.48569      102.48157
H        109.23011       87.39364      103.70731
N        111.91464       89.01919      102.41836
C        112.64492       90.28089      102.60965
C        114.03093       90.25433      101.96333
O        114.68104       91.29048      101.95195
C        112.70895       90.68268      104.10656
C        113.07167       89.55952      105.02834
O        112.22577       88.52676      105.08197
O        114.03015       89.61378      105.77677
H        112.35911       88.15036      102.73769
H        112.10633       91.11031      102.10109
H        111.68907       90.99741      104.41930
H        113.37983       91.55828      104.24437
N        114.53416       89.13770      101.36571
C        115.77654       89.10038      100.61709
C        117.00661       89.42086      101.42777
O        117.79148       90.25155      100.99224
H        114.00216       88.26163      101.37815
H        115.70634       89.78314       99.74224
H        115.90916       88.06900      100.22450
N        117.27041       88.76005      102.58846
C        118.53587       88.87714      103.30718
C        119.22211       87.51662      103.45972
O        120.32112       87.49364      103.99617
C        118.31971       89.56634      104.66759
C        117.85911       90.99454      104.47727
N        116.68789       91.42479      104.99469
O        118.56218       91.77563      103.85292
H        116.54894       88.13251      102.96808
H        119.25262       89.50685      102.73409
H        119.28124       89.60430      105.22402
H        117.59466       88.98556      105.27584
H        116.09431       90.78982      105.53851
H        116.37905       92.39901      104.85878
N        118.67185       86.35356      102.98614
C        119.35342       85.06709      103.00677
C        118.66373       84.00291      103.84302
O        119.16080       82.88533      103.83490
H        117.75450       86.36235      102.52950
H        120.39031       85.16440      103.39368
H        119.42415       84.70818      101.95755
N        117.57757       84.26113      104.63291
C        117.01325       83.27770      105.56018
C        115.51678       83.07631      105.32652
O        114.78063       84.04949      105.25440
C        117.29659       83.74416      107.00469
C        116.87938       82.68443      108.02966
O        118.67479       83.97352      107.16400
H        117.19451       85.21561      104.66261
H        117.52704       82.29702      105.44941
H        116.73169       84.67941      107.21960
H        118.84590       84.92166      106.92220
H        115.79170       82.47428      107.97150
H        117.43720       81.73895      107.85048
H        117.11464       83.04099      109.05428
N        114.99578       81.81426      105.27888
C        113.58193       81.49851      105.07857
C        112.96344       81.13642      106.42673
O        113.54792       80.36454      107.17550
C        113.41968       80.33145      104.04641
C        113.83585       80.70042      102.59537
C        111.95527       79.84554      103.97652
C        115.29851       81.08267      102.39185
H        115.63208       81.02086      105.45397
H        113.02748       82.37631      104.68062
H        114.02979       79.46715      104.39152
H        113.19701       81.52709      102.21565
H        113.65677       79.80729      101.95562
H        111.86065       78.98870      103.27581
H        111.59630       79.48514      104.96121
H        111.29200       80.65926      103.62081
H        115.96583       80.28302      102.77595
H        115.48765       81.21536      101.30565
H        115.53555       82.04803      102.87274
N        111.73221       81.62568      106.76075
C        111.04078       81.36980      108.02025
C        109.86774       80.41975      107.81340
O        109.63938       79.96077      106.70028
C        110.53468       82.70787      108.61656
C        111.63989       83.68835      108.87050
O        111.86786       84.14067      110.11851
O        112.31426       84.10598      107.94481
H        111.23565       82.19698      106.06797
H        111.72561       80.88273      108.74912
H        110.01566       82.52955      109.58023
H        109.80101       83.17290      107.92488
N        109.08955       80.06371      108.87317
C        107.97513       79.12446      108.81184
C        106.91561       79.51753      107.78317
O        106.68878       78.70394      106.90116
C        107.39697       78.91719      110.23268
C        106.14749       78.06814      110.29585
C        106.11370       76.77007      109.75669
C        104.99579       78.57746      110.92425
C        104.94551       76.00322      109.84028
C        103.83643       77.80414      111.01500
C        103.80977       76.51864      110.47148
H        109.32413       80.46366      109.79540
H        108.37981       78.13777      108.48860
H        107.19195       79.90250      110.69809
H        108.18562       78.43583      110.85107
H        106.98446       76.35243      109.26891
H        104.99602       79.57022      111.35724
H        104.92050       75.00679      109.41895
H        102.95966       78.20232      111.50976
H        102.90934       75.92218      110.54215
N        106.20643       80.69097      107.79614
C        105.16480       80.97151      106.81690
C        105.72600       81.32776      105.44964
O        104.94432       81.40047      104.50924
C        104.39892       82.13617      107.44749
C        105.51334       82.89462      108.14313
C        106.32784       81.75775      108.76450
H        104.47867       80.10215      106.70839
H        103.76565       82.72397      106.74811
H        103.74438       81.72634      108.25052
H        106.12732       83.37956      107.34996
H        105.18916       83.67523      108.86281
H        107.37319       82.10051      108.91479
H        105.87439       81.42296      109.71985
N        107.04762       81.60116      105.25692
C        107.59045       81.93797      103.94536
C        107.80276       80.68036      103.11891
O        107.98360       80.78767      101.91459
C        108.94301       82.65972      104.07337
C        108.86013       83.90056      104.97553
C        110.18968       84.54688      105.20120
O        111.16929       84.25216      104.53460
O        110.30721       85.43382      106.20098
H        107.67862       81.60396      106.06997
H        106.88515       82.63386      103.43625
H        109.31835       82.94869      103.06585
H        109.65997       81.94996      104.52778
H        108.49784       83.60162      105.97568
H        108.15165       84.65282      104.56731
N        107.88050       79.45568      103.71691
C        108.14644       78.24217      102.98149
H        109.11869       78.32571      102.45138
H        108.20431       77.38494      103.68749
H        107.33001       78.05365      102.25513
H        107.78744       79.37011      104.73642
Ca       112.12932       86.70230      106.31747
O        114.59392       85.63363      108.59983
H        115.41126       86.03709      108.98408
H        114.71942       84.65953      108.72304
O        115.56597       86.92494      106.08804
H        115.71244       87.64124      106.75502
H        115.82918       87.33210      105.22622
O        112.01401       87.75179      109.11794
H        111.66797       86.82597      109.05830
H        111.34967       88.29574      108.62442

Ca 1.0



