%chk=holoCaM-CaMKII.loop1.water2.frame233.chk
%nprocshared=20
%mem=10GB
%nosave
#b3lyp/svp scf=(tight,noincore,xqc) Test 
#IOP(5/87=12) Density=Current Pop=(MK,readradii) iop(6/33=2) iop(6/42=6)

holoCaM-CaMKII.loop1.water2.frame233 

   0  1 
C         79.81161       24.93235       48.27261
C         79.64002       24.30060       49.62191
O         80.37360       24.61932       50.54089
H         80.65073       25.65762       48.27045
H         80.00909       24.14369       47.51548
H         78.87425       25.46351       47.99882
N         78.65434       23.38718       49.79633
C         78.31904       22.72169       51.05195
C         79.16158       21.45762       51.16143
O         78.63967       20.36542       50.99361
C         76.79084       22.48738       50.98937
C         76.06533       21.94901       52.18018
O         76.15756       22.53223       53.38719
O         75.13836       21.18555       51.97443
H         78.06591       23.18248       48.97209
H         78.50606       23.38986       51.92375
H         76.55582       21.83843       50.11646
H         76.32197       23.47710       50.80510
N         80.50972       21.54791       51.37540
C         81.41296       20.39959       51.31620
C         81.16043       19.34332       52.40289
O         81.76483       18.28349       52.30784
C         82.89607       20.85091       51.39784
C         83.38621       21.85691       50.32827
C         83.24713       21.34344       48.88452
C         84.11212       22.13193       47.87784
N         83.76850       23.55213       47.79509
H         80.91674       22.47965       51.52107
H         81.25632       19.90965       50.33064
H         83.54409       19.95003       51.31629
H         83.07859       21.30612       52.39652
H         84.46516       22.02209       50.54061
H         82.87429       22.83750       50.42606
H         82.17755       21.35790       48.58001
H         83.60848       20.29383       48.84214
H         83.99049       21.67136       46.87213
H         85.18294       22.03122       48.16464
H         84.39562       24.00432       47.08949
H         82.77647       23.66925       47.48860
H         83.92412       24.02602       48.71291
N         80.31747       19.55162       53.46086
C         80.03890       18.54338       54.49539
C         78.55204       18.15441       54.57112
O         78.23485       17.25112       55.33269
C         80.62861       18.95750       55.87002
C         80.17851       20.27980       56.42476
O         80.60338       20.65664       57.50396
O         79.34867       21.07280       55.73709
H         79.86354       20.46759       53.53883
H         80.56286       17.59456       54.24113
H         81.73513       19.01002       55.77378
H         80.39695       18.16191       56.61301
N         77.60757       18.70178       53.74878
C         76.25812       18.16542       53.59914
C         75.31135       18.43329       54.75045
O         74.80889       17.48902       55.34207
H         77.87986       19.43941       53.09190
H         76.33029       17.07481       53.39525
H         75.79217       18.62975       52.70389
N         74.97096       19.71138       55.07022
C         73.97569       20.08933       56.07434
C         72.92148       21.06455       55.51869
O         72.14972       21.59328       56.30803
C         74.69209       20.66458       57.31303
C         75.72326       21.70405       56.99798
O         75.42857       22.71833       56.39743
O         76.99683       21.50519       57.37697
H         75.45232       20.47033       54.57234
H         73.41416       19.20481       56.45082
H         75.21727       19.82987       57.82507
H         73.94421       21.06985       58.02875
N         72.77375       21.30342       54.18074
C         71.75493       22.19195       53.63012
C         72.06431       23.67532       53.75867
O         71.22687       24.45972       53.33489
H         73.33307       20.76342       53.51202
H         70.77150       21.96216       54.09964
H         71.65263       21.99308       52.54194
N         73.21410       24.14663       54.32717
C         73.49823       25.57428       54.49869
C         74.89763       25.94654       54.00142
O         75.76492       25.08904       53.94859
C         73.29988       25.96407       55.98451
C         71.82835       25.81724       56.41561
O         74.13284       25.20861       56.82774
H         73.89007       23.47324       54.70139
H         72.78012       26.18260       53.90715
H         73.56358       27.03480       56.11582
H         73.70409       24.32409       56.97259
H         71.17873       26.45978       55.78579
H         71.48457       24.76415       56.32111
H         71.71422       26.12291       57.47654
N         75.18066       27.23052       53.61638
C         76.49483       27.67362       53.13887
C         77.01223       28.76253       54.07194
O         76.42904       29.83668       54.12686
C         76.39969       28.18673       51.66356
C         75.95969       27.03580       50.71924
C         77.73843       28.79795       51.18709
C         75.65675       27.49240       49.28782
H         74.42529       27.93145       53.65622
H         77.21773       26.82736       53.15359
H         75.62883       28.98896       51.63111
H         75.02520       26.57923       51.10723
H         76.74464       26.24731       50.69360
H         78.54836       28.03793       51.19243
H         77.64918       29.22352       50.16762
H         78.04079       29.64598       51.83354
H         76.55167       27.90698       48.78274
H         75.31306       26.62302       48.68854
H         74.85037       28.25661       49.29304
N         78.10958       28.53478       54.84824
C         78.68783       29.52931       55.75395
C         79.54141       30.53212       54.99886
O         79.69106       30.42564       53.79387
C         79.54041       28.83562       56.85328
C         78.64332       28.03950       57.81066
O         80.55539       28.04506       56.27890
H         78.52735       27.59616       54.81810
H         77.87238       30.08419       56.26908
H         80.04127       29.58606       57.49831
H         80.29009       27.09022       56.31347
H         79.26083       27.52045       58.57351
H         77.94310       28.72802       58.33036
H         78.05219       27.29797       57.24657
N         80.13733       31.55060       55.67654
C         81.04019       32.52228       55.06883
C         82.32104       31.82527       54.60080
O         82.68893       31.97134       53.44412
C         81.34197       33.65301       56.09016
C         82.18876       34.77423       55.48474
O         80.13026       34.22695       56.52039
H         79.93555       31.63593       56.68322
H         80.52765       33.00570       54.20588
H         81.90302       33.23736       56.96147
H         79.90160       33.82963       57.40120
H         83.17366       34.39441       55.14555
H         81.65656       35.23414       54.62377
H         82.35995       35.56287       56.24918
N         83.03229       31.03144       55.45808
C         84.27783       30.33121       55.11669
C         84.08851       29.42112       53.91063
O         84.82683       29.56132       52.94572
C         84.74495       29.49232       56.33263
C         86.10380       28.77688       56.17858
C         87.31510       29.72348       56.25389
C         88.62560       28.91544       56.29868
N         89.78988       29.78601       56.46436
H         82.65708       30.91491       56.41220
H         85.05831       31.09005       54.88841
H         83.97333       28.71504       56.52296
H         84.79496       30.13285       57.23994
H         86.13200       28.17009       55.24719
H         86.18703       28.07765       57.03866
H         87.24419       30.31775       57.19141
H         87.32520       30.42074       55.38914
H         88.73536       28.32230       55.36413
H         88.59017       28.20767       57.15777
H         89.87608       30.43596       55.65041
H         89.70662       30.33500       57.35111
H         90.65150       29.19503       56.52033
N         83.09605       28.48299       53.89229
C         82.82644       27.60406       52.75387
C         82.67395       28.41417       51.48080
O         83.37162       28.13420       50.51525
C         81.55785       26.75121       53.00070
C         81.80571       25.62495       54.01850
C         80.58858       24.75804       54.19240
O         79.44432       25.27313       54.67675
O         80.63792       23.57235       53.90931
H         82.47539       28.42872       54.71121
H         83.68214       26.90931       52.59604
H         81.27810       26.26454       52.04845
H         80.70832       27.40044       53.31213
H         82.10198       26.03774       55.00373
H         82.63851       24.98943       53.64212
N         81.81998       29.46571       51.42144
C         81.70094       30.29874       50.24698
H         80.99173       31.12999       50.44519
H         82.69177       30.73494       49.99398
H         81.32818       29.69805       49.39169
H         81.27014       29.70528       52.25036
Ca        77.97812       22.46554       54.66811
O         77.21756       24.93643       57.09393
H         77.07643       25.30715       58.00140
H         76.59656       25.44381       56.51601
O         79.62143       23.68941       57.69862
H         80.39116       23.53835       58.30043
H         79.10667       22.84661       57.74301

Ca 1.0



