%chk=holoCaM.loop1.water2.frame182.chk
%nprocshared=20
%mem=10GB
%nosave
#b3lyp/svp scf=(tight,noincore,xqc) Test 
#IOP(5/87=12) Density=Current Pop=(MK,readradii) iop(6/33=2) iop(6/42=6)

holoCaM.loop1.water2.frame182 

   0  1 
C         16.07944       89.49579       87.43169
C         16.70055       90.83295       87.68947
O         16.05343       91.66711       88.30698
H         15.14642       89.62783       86.84631
H         16.76790       88.83063       86.87070
H         15.83659       89.01584       88.40374
N         17.97216       91.10381       87.27770
C         18.62181       92.36788       87.58636
C         17.94250       93.49705       86.82239
O         18.05807       93.55430       85.60548
C         20.12430       92.28672       87.26008
C         20.90536       93.43067       87.82586
O         20.31675       94.37431       88.58080
O         22.10494       93.47750       87.64085
H         18.50634       90.36577       86.79308
H         18.52615       92.51322       88.68627
H         20.27071       92.22597       86.15877
H         20.54827       91.36510       87.71353
N         17.13407       94.37516       87.47665
C         16.30627       95.35961       86.78685
C         17.08750       96.59158       86.32424
O         16.53499       97.38739       85.57883
C         15.15842       95.79216       87.73000
C         13.94059       96.33811       86.97696
C         12.82258       96.71990       87.95275
C         11.51772       96.99340       87.19632
N         10.45278       97.39046       88.11509
H         16.98048       94.21416       88.47731
H         15.85690       94.83159       85.91645
H         15.54026       96.50708       88.49449
H         14.78808       94.89091       88.26858
H         13.57935       95.52385       86.31011
H         14.19357       97.22070       86.35521
H         13.13665       97.61587       88.53287
H         12.63682       95.88428       88.66309
H         11.21225       96.06285       86.66543
H         11.67235       97.79430       86.44056
H         10.31166       96.65661       88.84719
H         10.69676       98.30058       88.56849
H          9.56413       97.50531       87.57647
N         18.34338       96.85365       86.79131
C         19.09247       98.07539       86.48736
C         20.42531       97.79676       85.78868
O         20.76767       98.57267       84.90668
C         19.22000       99.01493       87.71695
C         19.80355       98.43027       88.97654
O         20.05104       97.11453       89.08105
O         20.01213       99.15874       89.93334
H         18.75838       96.17724       87.43745
H         18.51933       98.69531       85.76121
H         18.20815       99.39232       87.98501
H         19.82982       99.89447       87.41127
N         21.19741       96.70114       86.06121
C         22.36792       96.33309       85.26403
C         23.68044       96.26177       86.02859
O         24.66881       95.87900       85.41847
H         20.91156       96.05375       86.80371
H         22.52054       97.03387       84.41645
H         22.16696       95.33041       84.82744
N         23.79355       96.62727       87.33669
C         25.05887       96.58672       88.09144
C         25.59001       95.17524       88.40199
O         26.57596       95.08786       89.12182
C         24.97356       97.45979       89.37700
C         23.72413       97.26351       90.17398
O         23.34486       96.05623       90.61367
O         22.96486       98.20912       90.32163
H         22.95333       97.00789       87.79299
H         25.85721       97.07998       87.49431
H         24.97579       98.52564       89.05550
H         25.86958       97.31676       90.01607
N         25.06834       94.03586       87.85881
C         25.62261       92.70809       88.10392
C         25.35739       92.16400       89.49611
O         25.81386       91.06398       89.77562
H         24.30714       94.09697       87.18035
H         26.71641       92.72717       87.90208
H         25.16304       91.98928       87.39176
N         24.62498       92.85244       90.41448
C         24.33308       92.37431       91.75997
C         22.82890       92.30507       91.98220
O         22.10361       93.20976       91.58996
C         25.02199       93.27455       92.81546
C         26.53297       93.03102       92.83859
O         24.79069       94.63280       92.56268
H         24.24738       93.77335       90.16244
H         24.73285       91.34930       91.92725
H         24.65908       93.00974       93.83631
H         23.84919       94.80435       92.80737
H         26.73954       91.97131       93.10589
H         26.99101       93.24992       91.85167
H         27.00790       93.67576       93.60831
N         22.31326       91.26366       92.69194
C         20.90544       91.08607       93.02413
C         20.70677       91.48784       94.47524
O         21.44432       91.04402       95.34532
C         20.48499       89.61233       92.73523
C         20.52835       89.28346       91.21647
C         19.11043       89.24891       93.32959
C         19.47131       90.00252       90.36320
H         22.97346       90.57706       93.09005
H         20.26261       91.75706       92.41901
H         21.22140       88.94957       93.24222
H         20.37116       88.19091       91.08519
H         21.53541       89.52525       90.81405
H         18.86899       88.18686       93.11010
H         19.11728       89.36275       94.43335
H         18.30693       89.88999       92.92435
H         19.58461       89.69331       89.30378
H         18.44312       89.72456       90.67482
H         19.58152       91.10342       90.41166
N         19.68425       92.32852       94.79251
C         19.40457       92.85636       96.11737
C         18.22573       92.13243       96.73531
O         17.66738       91.23027       96.12297
C         19.10244       94.38186       96.00429
C         20.30986       95.15717       95.48532
O         18.00496       94.58477       95.14767
H         19.03273       92.59604       94.04794
H         20.26896       92.69339       96.79809
H         18.85847       94.79120       97.00813
H         17.70539       95.52444       95.26113
H         20.58931       94.81052       94.46899
H         20.06183       96.23890       95.44097
H         21.17017       95.02681       96.17388
N         17.78792       92.50102       97.96851
C         16.61925       91.93329       98.63061
C         15.39448       92.07343       97.73441
O         14.65208       91.11627       97.57671
C         16.37118       92.62924       99.99849
C         17.53713       92.42534      100.97925
O         16.16030       94.00475       99.81171
H         18.29255       93.26331       98.44267
H         16.78806       90.85128       98.83302
H         15.46019       92.16575      100.44452
H         15.70370       94.34337      100.62571
H         18.47377       92.89313      100.61201
H         17.29103       92.89762      101.95401
H         17.71915       91.34396      101.14710
N         15.16926       93.24281       97.07223
C         14.04982       93.47220       96.16518
C         14.11679       92.50808       94.98901
O         13.15158       91.80399       94.72429
C         14.08476       94.91099       95.56415
C         13.84165       96.11585       96.49777
C         14.89969       96.30642       97.59329
C         14.84230       97.67585       98.28471
N         13.56123       97.92449       98.94292
H         15.86468       93.98561       97.19276
H         13.08749       93.34227       96.70806
H         13.28120       94.96742       94.79516
H         15.05060       95.07613       95.04024
H         12.82991       96.04644       96.95006
H         13.86941       97.01432       95.84215
H         15.91156       96.23650       97.13698
H         14.77137       95.51541       98.35755
H         15.04153       98.47742       97.53940
H         15.65490       97.70835       99.04512
H         13.61736       98.83879       99.44705
H         12.79486       97.98789       98.23569
H         13.35557       97.16677       99.63320
N         15.22354       92.49750       94.19513
C         15.31713       91.79327       92.91783
C         15.39505       90.27682       93.08054
O         15.39856       89.59326       92.06602
C         16.55918       92.30002       92.13326
C         16.54698       93.83342       91.90928
C         17.86526       94.35164       91.40338
O         18.99205       94.13604       92.10470
O         17.91498       95.04927       90.40768
H         16.00807       93.09351       94.48761
H         14.41670       92.04612       92.31443
H         16.63871       91.79166       91.14706
H         17.44818       92.02524       92.72306
H         16.38302       94.37462       92.85747
H         15.71552       94.10818       91.22365
N         15.48315       89.67765       94.30575
C         15.58853       88.24376       94.49255
H         16.53816       88.01299       95.02043
H         14.74010       87.89018       95.11514
H         15.57853       87.68499       93.53367
H         15.49417       90.24549       95.16109
Ca        21.13075       96.13346       90.78378
O         19.28675       97.35051       92.96296
H         19.98950       97.77450       93.51567
H         19.28787       97.87593       92.12505
O         22.33064       96.60829       93.66971
H         22.95221       96.33995       94.39218
H         22.85658       97.22001       93.09791

Ca 1.0



