%chk=holoCaM-CaMKII.loop3.water1.frame433.chk
%nprocshared=20
%mem=10GB
%nosave
#b3lyp/svp scf=(tight,noincore,xqc) Test 
#IOP(5/87=12) Density=Current Pop=(MK,readradii) iop(6/33=2) iop(6/42=6)

holoCaM-CaMKII.loop3.water1.frame433 

   0  1 
C         78.00269       72.11546       37.99206
C         77.07862       72.35658       39.15175
O         77.18560       73.40060       39.77903
H         79.05597       72.10203       38.34056
H         77.78079       71.15095       37.48843
H         77.87731       72.93124       37.24819
N         76.13079       71.43407       39.48444
C         75.14559       71.63103       40.54027
C         75.30353       70.54830       41.60820
O         75.21959       69.36857       41.29489
C         73.74966       71.60003       39.90273
C         72.65794       71.87633       40.88672
O         72.54664       71.20470       41.88333
O         71.73468       72.80898       40.66295
H         76.07978       70.55917       38.93941
H         75.27470       72.63285       41.00721
H         73.57893       70.59622       39.45788
H         73.69129       72.35529       39.08904
N         75.57103       70.90317       42.89656
C         75.90094       69.94724       43.95830
C         74.72653       69.13516       44.52014
O         74.99371       68.13256       45.16793
C         76.73064       70.64875       45.06552
C         76.02826       71.82360       45.79328
C         77.01979       72.66149       46.62278
C         77.57620       71.93237       47.85026
N         78.55770       72.76961       48.54180
H         75.68688       71.90838       43.07039
H         76.59663       69.20600       43.50405
H         77.63072       71.05847       44.55521
H         77.07620       69.89645       45.80486
H         75.17904       71.46541       46.41292
H         75.61581       72.53646       45.05693
H         76.50340       73.57824       46.98032
H         77.85501       72.98519       45.96125
H         78.06744       70.98251       47.55412
H         76.73421       71.69835       48.53879
H         79.38264       72.93545       47.91947
H         78.13409       73.68728       48.81142
H         78.88206       72.27794       49.40523
N         73.42320       69.50470       44.35709
C         72.27784       68.74930       44.88324
C         71.23742       68.38946       43.80618
O         70.20601       67.83430       44.15971
C         71.66557       69.53093       46.06601
C         71.23871       70.92861       45.72431
O         70.32665       71.12992       44.94367
O         71.86216       71.97268       46.30003
H         73.23498       70.40255       43.90571
H         72.60915       67.77982       45.31752
H         72.44760       69.59988       46.85379
H         70.80742       68.97334       46.50229
N         71.45720       68.61259       42.47615
C         70.54923       68.21458       41.40326
C         69.18195       68.89185       41.35068
O         68.39996       68.48389       40.50290
H         72.36730       68.97915       42.18500
H         70.38582       67.11842       41.48654
H         71.04590       68.40456       40.42635
N         68.78549       69.87707       42.21038
C         67.39552       70.34669       42.27117
C         66.90243       71.12298       41.04906
O         65.71856       71.43180       41.02437
C         67.11738       71.11244       43.59758
C         67.19596       72.65186       43.61669
N         67.35060       73.22839       44.94247
O         67.94399       73.32287       42.65442
H         69.44847       70.19510       42.92259
H         66.78798       69.41620       42.35479
H         67.71326       70.66104       44.41877
H         66.05609       70.92860       43.87352
H         66.48005       73.01858       45.47999
H         67.39260       74.26777       44.84056
N         67.72325       71.48521       40.01325
C         67.24966       72.23935       38.85790
C         68.03953       73.51518       38.64998
O         68.58915       73.69664       37.57271
H         68.71543       71.21201       40.02269
H         66.17836       72.51520       38.96267
H         67.33783       71.60129       37.95176
N         68.11881       74.45487       39.63460
C         68.78535       75.75123       39.48538
C         69.99614       75.88371       40.39000
O         70.14343       75.09939       41.31107
C         67.78949       76.89581       39.79837
C         67.22132       76.81903       41.20903
C         67.83012       77.51496       42.26947
C         66.07857       76.04150       41.47653
C         67.31011       77.42863       43.56716
C         65.56169       75.95621       42.77314
C         66.17291       76.64837       43.82214
O         65.66056       76.55419       45.06659
H         67.66960       74.23536       40.52708
H         69.15471       75.86148       38.44296
H         66.95156       76.88092       39.06904
H         68.30065       77.87346       39.66014
H         68.71143       78.11833       42.09522
H         65.58926       75.49472       40.68027
H         67.79212       77.96636       44.37430
H         64.68505       75.34902       42.96319
H         66.05082       77.01522       45.82288
N         70.90923       76.88056       40.18543
C         72.05486       77.10368       41.06703
C         71.99969       78.49030       41.67913
O         71.20157       79.31859       41.25825
C         73.41786       76.79784       40.35393
C         73.69628       77.57937       39.04191
C         73.50690       75.29641       40.04683
C         73.97558       79.06795       39.23159
H         70.77990       77.51071       39.37918
H         71.98954       76.41310       41.93187
H         74.25044       77.00544       41.06170
H         72.87132       77.43048       38.31337
H         74.62131       77.16521       38.58164
H         73.41342       74.71744       40.98636
H         72.71269       74.98378       39.33680
H         74.49572       75.04263       39.60659
H         74.24000       79.51391       38.24925
H         73.09616       79.61206       39.61458
H         74.83574       79.20753       39.92136
N         72.80703       78.78526       42.73338
C         72.85899       80.08206       43.39730
C         74.29646       80.57825       43.44825
O         75.17787       79.90742       42.93309
C         72.26522       79.94506       44.81059
O         73.00654       79.04416       45.59056
H         73.40201       78.03333       43.11181
H         72.24495       80.83368       42.85423
H         71.19889       79.62430       44.73376
H         72.24493       80.92528       45.32973
H         72.51161       78.18403       45.58949
N         74.61523       81.74382       44.07526
C         75.98939       82.21650       44.22837
C         76.81916       81.22194       45.02180
O         77.88244       80.83173       44.56159
C         76.01006       83.56970       44.94637
H         73.85197       82.30718       44.48080
H         76.44710       82.36918       43.22480
H         75.56315       83.49059       45.96039
H         77.05686       83.93084       45.04397
H         75.43641       84.31737       44.35923
N         76.36939       80.75633       46.22210
C         77.10483       79.81532       47.06249
C         77.50469       78.56725       46.29972
O         78.67249       78.20562       46.35012
C         76.26639       79.43822       48.28957
H         75.44494       81.08033       46.54670
H         78.03056       80.30756       47.43687
H         76.02166       80.35160       48.87369
H         75.31919       78.94321       47.98619
H         76.83836       78.75031       48.94890
N         76.60462       77.88103       45.53886
C         76.97114       76.69424       44.76585
C         78.11205       77.02045       43.81445
O         79.15665       76.39183       43.91189
C         75.76498       76.12311       43.98465
C         74.64205       75.64810       44.92469
C         73.50713       75.01696       44.17308
O         72.26524       75.52576       44.27871
O         73.69496       74.01950       43.49522
H         75.64051       78.24121       45.48929
H         77.31710       75.90100       45.46670
H         76.11627       75.24889       43.39225
H         75.37545       76.88298       43.27620
H         74.24715       76.49957       45.51273
H         75.04417       74.89869       45.63431
N         77.99328       78.02250       42.90027
C         79.05940       78.43374       42.00944
H         79.97880       77.82540       42.13755
H         78.71744       78.34557       40.95768
H         79.31468       79.49575       42.21376
H         77.11275       78.54412       42.84629
Ca        69.97281       72.57465       42.04089
O         70.02108       74.28561       45.83733
H         70.48153       74.12956       46.69908
H         69.42638       75.05631       46.01505

Ca 1.0



