%chk=holoCaM.loop2.water2.frame258.chk
%nprocshared=20
%mem=10GB
%nosave
#b3lyp/svp scf=(tight,noincore,xqc) Test 
#IOP(5/87=12) Density=Current Pop=(MK,readradii) iop(6/33=2) iop(6/42=6)

holoCaM.loop2.water2.frame258 

   -2  1 
C         49.46636        5.43788       47.86586
C         48.84402        5.80515       46.54729
O         47.72603        6.29337       46.52049
H         50.40594        6.01960       47.99894
H         48.78958        5.67917       48.71266
H         49.71178        4.35653       47.88698
N         49.56105        5.64650       45.40492
C         49.14186        6.16235       44.10574
C         48.14256        5.26665       43.37757
O         48.37700        4.07186       43.26493
C         50.39123        6.36807       43.23828
C         50.03095        7.02505       41.94843
O         49.37865        8.20149       41.96758
O         50.30096        6.48879       40.88649
H         50.52227        5.28160       45.50292
H         48.70982        7.17795       44.25246
H         50.90512        5.39990       43.05357
H         51.09092        7.04377       43.77670
N         47.04642        5.82178       42.77462
C         46.05043        5.07998       42.00352
C         45.90321        5.57363       40.55390
O         45.04431        5.03776       39.86592
C         44.69808        5.21056       42.71457
H         46.90969        6.83581       42.86234
H         46.30768        3.99886       41.96800
H         44.37489        6.27315       42.74725
H         43.91826        4.62023       42.18624
H         44.77527        4.82607       43.75336
N         46.68461        6.55821       40.00483
C         46.46603        7.05929       38.63075
C         47.59401        7.90757       38.01505
O         47.47560        8.22796       36.83984
C         45.14356        7.86757       38.57793
C         45.16895        9.06911       39.48264
O         46.28964        9.40767       40.14220
O         44.15283        9.72244       39.65561
H         47.43025        6.93576       40.58994
H         46.38796        6.17544       37.96067
H         44.30829        7.21878       38.90978
H         44.91645        8.20167       37.54299
N         48.70193        8.30669       38.69848
C         49.78649        9.06506       38.10872
C         49.34369       10.42741       37.64098
O         49.53990       10.74877       36.47809
H         48.82107        8.06871       39.67642
H         50.24136        8.48488       37.27758
H         50.57545        9.21764       38.88083
N         48.81094       11.31052       38.53021
C         48.53314       12.70810       38.21303
C         49.57900       13.61029       38.87106
O         49.38084       14.81631       38.92391
C         47.07891       13.09663       38.59239
C         46.74202       13.07713       40.06588
N         45.52980       13.50283       40.48664
O         47.55510       12.69677       40.88937
H         48.69468       10.99994       39.50499
H         48.61449       12.88817       37.11860
H         46.36737       12.43168       38.05600
H         46.90520       14.13455       38.23323
H         44.82397       13.83839       39.81585
H         45.30461       13.51361       41.49171
N         50.76222       13.09291       39.32497
C         51.82528       13.87587       39.93228
C         51.54976       14.31664       41.36128
O         52.42426       14.95116       41.93143
H         50.97129       12.09830       39.16841
H         52.05757       14.74941       39.28416
H         52.73779       13.24273       39.97755
N         50.37423       14.04503       42.00229
C         50.05252       14.52195       43.34872
C         49.38359       13.43617       44.19816
O         49.15081       12.33808       43.71620
C         49.12671       15.76221       43.23569
C         49.83206       16.94884       42.56005
O         47.92260       15.44535       42.57944
H         49.63962       13.55681       41.48871
H         50.97719       14.83602       43.88043
H         48.86798       16.12166       44.25182
H         48.11151       15.37097       41.60758
H         50.75106       17.21415       43.12647
H         50.11397       16.71143       41.51317
H         49.15836       17.83054       42.55175
N         49.00772       13.72077       45.48376
C         48.27190       12.81400       46.36363
C         46.87890       13.40130       46.56859
O         46.75083       14.54593       46.97853
C         49.02254       12.62335       47.71359
C         50.40471       11.96532       47.46955
C         48.18219       11.76561       48.68583
C         51.28735       11.90882       48.71813
H         49.21153       14.65826       45.85737
H         48.16833       11.81137       45.89457
H         49.17223       13.62697       48.16913
H         50.96509       12.54917       46.70913
H         50.26322       10.93444       47.08091
H         48.67203       11.66969       49.67367
H         47.19695       12.23470       48.88032
H         48.01615       10.75057       48.26778
H         52.26522       11.45294       48.45595
H         51.46621       12.93504       49.10271
H         50.83678       11.28851       49.51793
N         45.78589       12.65125       46.26270
C         44.40671       13.13959       46.28330
C         43.82657       13.01784       47.68048
O         44.53574       12.59751       48.57893
C         43.54833       12.28263       45.32115
C         44.09917       12.21315       43.92553
O         45.33867       11.72766       43.75160
O         43.40103       12.48009       42.96089
H         45.95135       11.68256       45.96383
H         44.36960       14.19155       45.92339
H         42.50436       12.65875       45.27845
H         43.52756       11.23842       45.70341
N         42.52679       13.33466       47.94050
C         41.90830       13.09244       49.23946
C         41.87443       11.59210       49.58209
O         42.42130       11.26000       50.62343
C         40.51196       13.75667       49.32873
C         39.76717       13.33529       50.57520
C         40.29055       13.59205       51.85440
C         38.54470       12.64912       50.45937
C         39.60390       13.16290       52.99471
C         37.86166       12.22465       51.60134
C         38.39129       12.47952       52.86821
H         41.95375       13.74297       47.18623
H         42.52107       13.59979       50.01956
H         39.90164       13.51764       48.44374
H         40.63302       14.86116       49.31046
H         41.23170       14.11390       51.96974
H         38.12298       12.43324       49.48522
H         40.01415       13.35623       53.97715
H         36.92381       11.69336       51.50252
H         37.86263       12.14536       53.75127
N         41.26101       10.62602       48.81657
C         41.20737        9.21016       49.18647
C         42.56798        8.63021       49.51138
O         42.73100        7.97006       50.52795
C         40.66132        8.52251       47.92308
C         39.76421        9.58715       47.35261
C         40.61273       10.84031       47.53707
H         40.49969        9.08523       50.03635
H         41.47073        8.38116       47.17046
H         40.18640        7.53470       48.10516
H         39.42060        9.41165       46.31084
H         38.87442        9.66538       48.01843
H         41.39533       10.93289       46.75566
H         39.92157       11.69093       47.49512
N         43.59526        8.86511       48.65678
C         44.94635        8.33906       48.79453
C         45.55925        8.78439       50.11006
O         46.02992        7.94303       50.86185
C         45.79645        8.80761       47.59126
C         45.22588        8.26539       46.25834
C         45.96810        8.74881       45.05158
O         47.06457        9.51980       45.16277
O         45.54721        8.46076       43.94499
H         43.39068        9.48303       47.85853
H         44.92419        7.22613       48.77091
H         46.84202        8.45217       47.71176
H         45.80537        9.91857       47.56538
H         44.17787        8.59093       46.11572
H         45.23349        7.15444       46.26743
N         45.54247       10.09638       50.46593
C         46.06563       10.61277       51.71310
H         46.82203       11.39540       51.49730
H         45.23712       11.07309       52.29296
H         46.53651        9.82351       52.33402
H         45.10125       10.76489       49.83235
Ca        46.02246       10.59679       41.98322
O         50.38151        9.83647       44.74963
H         50.75934        9.11259       45.30753
H         49.51665        9.47864       44.43030
O         50.39502       10.80314       41.38507
H         51.30807       11.15538       41.25084
H         50.43148       10.40126       42.28438

Ca 1.0



