%chk=holoCaM.loop3.water3.frame420.chk
%nprocshared=20
%mem=10GB
%nosave
#b3lyp/svp scf=(tight,noincore,xqc) Test 
#IOP(5/87=12) Density=Current Pop=(MK,readradii) iop(6/33=2) iop(6/42=6)

holoCaM.loop3.water3.frame420 

   0  1 
C         -8.00616       92.29608       67.75389
C         -7.79471       91.60139       69.06245
O         -8.45296       90.60284       69.31909
H         -8.30878       93.34862       67.93330
H         -7.06057       92.27784       67.17300
H         -8.79937       91.78845       67.16437
N         -6.89419       92.09729       69.95654
C         -6.61620       91.46842       71.23760
C         -7.20437       92.33219       72.33303
O         -6.79226       93.47165       72.50156
C         -5.10197       91.23027       71.35977
C         -4.69749       90.47565       72.58765
O         -5.59678       90.09204       73.50597
O         -3.52822       90.18635       72.74432
H         -6.39865       92.97298       69.72589
H         -7.11426       90.48042       71.28402
H         -4.56138       92.20157       71.33618
H         -4.77460       90.62872       70.48376
N         -8.26544       91.86153       73.04915
C         -9.05276       92.69306       73.95360
C         -8.35213       92.97088       75.28627
O         -8.85669       93.79107       76.03901
C        -10.44591       92.04418       74.17162
C        -11.22763       91.92124       72.84063
C        -12.59681       91.25316       73.02320
C        -13.34874       91.17838       71.68261
N        -14.64598       90.52064       71.83833
H         -8.60304       90.90967       72.83881
H         -9.22838       93.67150       73.45243
H        -11.04482       92.66956       74.86808
H        -10.31575       91.03687       74.62606
H        -10.65596       91.31736       72.10413
H        -11.37181       92.93866       72.41592
H        -13.20225       91.83599       73.75005
H        -12.45368       90.22496       73.42026
H        -12.74181       90.61320       70.94068
H        -13.50578       92.20717       71.28815
H        -15.13255       90.49925       70.91265
H        -14.51341       89.53806       72.17142
H        -15.23875       91.04904       72.51886
N         -7.21790       92.30858       75.66113
C         -6.50926       92.52448       76.92948
C         -4.99982       92.70489       76.72542
O         -4.30168       92.85244       77.72008
C         -6.80357       91.37241       77.92759
C         -6.38308       90.03157       77.41291
O         -5.57985       89.33818       78.01283
O         -6.93533       89.62111       76.26610
H         -6.86620       91.57776       75.03613
H         -6.89099       93.44276       77.42743
H         -7.90005       91.33651       78.11267
H         -6.30811       91.58071       78.90142
N         -4.42036       92.74084       75.48546
C         -2.99724       92.97763       75.27639
C         -2.07917       91.81017       75.61547
O         -0.87485       91.99589       75.51392
H         -5.00637       92.69394       74.64171
H         -2.69908       93.87660       75.85992
H         -2.82674       93.20801       74.20299
N         -2.54294       90.58937       76.01369
C         -1.65742       89.48506       76.41093
C         -0.90778       88.79648       75.25454
O         -0.22231       87.81855       75.52047
C         -2.44611       88.45752       77.25646
C         -3.40239       87.58803       76.47965
N         -3.36569       86.24310       76.62112
O         -4.23280       88.09363       75.74407
H         -3.55885       90.47008       76.12482
H         -0.90963       89.89957       77.12366
H         -3.00830       89.01538       78.03476
H         -1.72662       87.80269       77.79470
H         -2.68958       85.79419       77.25639
H         -4.03274       85.64406       76.11627
N         -0.95668       89.24753       73.96520
C         -0.24285       88.62393       72.85556
C         -0.95492       87.43216       72.21954
O         -0.40409       86.88487       71.27648
H         -1.42961       90.13249       73.76530
H          0.78528       88.34584       73.17956
H         -0.12930       89.37861       72.04775
N         -2.15961       86.96808       72.66633
C         -2.84484       85.79090       72.11602
C         -4.31309       86.09932       71.82814
O         -4.96457       86.65229       72.70238
C         -2.82023       84.68691       73.18356
C         -1.42765       84.22944       73.54273
C         -0.83853       84.65362       74.74269
C         -0.71923       83.34993       72.70772
C          0.42882       84.20616       75.11287
C          0.54760       82.88703       73.08689
C          1.12323       83.31306       74.29456
O          2.33528       82.86856       74.68260
H         -2.59042       87.42393       73.48237
H         -2.34615       85.39272       71.20480
H         -3.41265       83.80096       72.86399
H         -3.31792       85.09099       74.08433
H         -1.35601       85.33692       75.39156
H         -1.15712       83.00228       71.78026
H          0.86445       84.54780       76.04350
H          1.07681       82.19178       72.44785
H          2.84135       82.22944       74.16194
N         -4.92897       85.67709       70.67645
C         -6.37452       85.81869       70.45921
C         -7.06364       84.45645       70.39459
O         -6.77678       83.65993       69.51426
C         -6.72478       86.69228       69.21369
C         -6.16767       86.15336       67.86819
C         -6.27063       88.13531       69.46755
C         -6.71885       86.89846       66.64860
H         -4.37176       85.18466       69.96349
H         -6.83220       86.34724       71.32172
H         -7.83666       86.70573       69.14172
H         -6.47306       85.10302       67.71810
H         -5.05791       86.19727       67.86447
H         -6.72046       88.49143       70.41376
H         -5.16588       88.19788       69.54889
H         -6.61453       88.81762       68.66693
H         -6.32526       86.42974       65.72216
H         -7.82869       86.82882       66.62975
H         -6.41794       87.96391       66.63992
N         -8.02202       84.13654       71.31303
C         -8.83828       82.92431       71.24098
C         -9.80754       82.99627       70.06299
O         -9.82595       83.99700       69.36653
C         -9.63421       82.75943       72.55328
O        -10.49941       83.84576       72.74235
H         -8.19437       84.79445       72.08464
H         -8.17310       82.03933       71.13911
H         -8.90991       82.70324       73.39685
H        -10.22494       81.81840       72.53249
H        -10.86661       83.75557       73.65963
N        -10.67160       81.97459       69.80189
C        -11.71518       82.04256       68.77770
C        -12.73013       83.12696       69.10820
O        -13.07517       83.90609       68.23157
C        -12.44207       80.69890       68.66769
H        -10.60404       81.12066       70.37621
H        -11.26068       82.23860       67.78008
H        -13.21756       80.75224       67.87218
H        -11.71827       79.90360       68.38912
H        -12.92939       80.42585       69.62728
N        -13.22210       83.24686       70.37637
C        -14.18243       84.26835       70.79835
C        -13.71996       85.65778       70.40113
O        -14.46567       86.38872       69.76503
C        -14.35870       84.20794       72.32556
H        -12.85831       82.59726       71.09144
H        -15.16938       84.06972       70.32681
H        -14.72287       83.20465       72.63224
H        -13.39307       84.39867       72.84422
H        -15.09364       84.96849       72.66456
N        -12.46664       86.05947       70.72402
C        -11.88357       87.35297       70.37660
C        -11.89762       87.55822       68.87447
O        -12.39311       88.58035       68.42010
C        -10.44972       87.41440       70.94826
C        -10.52778       87.42472       72.48373
C         -9.21452       87.20704       73.15098
O         -8.19739       88.05555       72.97248
O         -9.09580       86.30182       73.96072
H        -11.88105       85.37386       71.22151
H        -12.46998       88.17637       70.84302
H         -9.91895       88.33384       70.61439
H         -9.87916       86.53053       70.58803
H        -11.20379       86.63087       72.86022
H        -10.94947       88.39740       72.81470
N        -11.41570       86.60337       68.03793
C        -11.44999       86.73439       66.59956
H        -10.81858       87.58973       66.28275
H        -11.06117       85.80528       66.12981
H        -12.49563       86.88918       66.25679
H        -11.04596       85.73548       68.43321
Ca        -6.84990       87.99776       74.74863
O         -9.39590       88.17589       76.43774
H        -10.02331       87.41660       76.34335
H         -9.89027       88.95634       76.08204
O         -6.35319       84.86284       74.60399
H         -5.73644       84.09721       74.49098
H         -7.25634       84.46113       74.56088
O         -6.39713       86.06726       77.50655
H         -6.64157       86.98091       77.21824
H         -5.68114       86.20561       78.17597

Ca 1.0



