%chk=holoCaM.loop2.water2.frame422.chk
%nprocshared=20
%mem=10GB
%nosave
#b3lyp/svp scf=(tight,noincore,xqc) Test 
#IOP(5/87=12) Density=Current Pop=(MK,readradii) iop(6/33=2) iop(6/42=6)

holoCaM.loop2.water2.frame422 

   -2  1 
C         93.25162      117.29193       42.07582
C         94.43233      117.72846       41.26618
O         95.55661      117.38607       41.60650
H         92.56491      116.70043       41.43255
H         93.57122      116.65821       42.92973
H         92.71561      118.18355       42.45971
N         94.23847      118.45999       40.13607
C         95.33169      118.82026       39.24978
C         96.12546      119.98509       39.83617
O         95.59741      121.08371       39.93587
C         94.76087      119.11214       37.84774
C         95.79508      119.24018       36.77810
O         95.43921      119.38708       35.62267
O         97.10326      119.15180       37.06371
H         93.26845      118.67231       39.85348
H         95.97347      117.91928       39.13589
H         94.12579      120.02361       37.86901
H         94.12547      118.24698       37.55475
N         97.39455      119.78995       40.29147
C         98.21569      120.82548       40.91393
C         98.62131      121.91103       39.93596
O         98.52258      123.07999       40.28206
C         99.48909      120.20437       41.50257
H         97.78075      118.83768       40.24201
H         97.66886      121.27331       41.77483
H        100.09307      120.98657       42.01349
H         99.21795      119.43654       42.25866
H        100.10887      119.73024       40.71232
N         99.11104      121.59203       38.70315
C         99.63698      122.57927       37.76304
C         98.67772      122.89561       36.62657
O         99.01376      123.74045       35.80719
C        101.04392      122.16851       37.25479
C        101.20067      120.79264       36.58881
O        101.16272      119.74779       37.51949
O        100.22706      120.54494       35.61539
H         99.08492      120.60441       38.41545
H         99.76791      123.55770       38.27537
H        101.75939      122.19370       38.10337
H        101.38361      122.93179       36.52298
N         97.44512      122.32747       36.54083
C         96.47050      122.70463       35.53510
C         96.94597      122.44046       34.12842
O         96.93623      123.36264       33.32513
H         97.14888      121.64026       37.24443
H         96.21439      123.78138       35.65322
H         95.53903      122.12219       35.70126
N         97.33020      121.18961       33.74716
C         97.63349      120.83250       32.36424
C         96.61098      119.81127       31.86020
O         96.85101      119.15656       30.85573
C         99.10762      120.38279       32.23310
C         99.40217      118.97403       32.68409
N        100.05550      118.11800       31.86162
O         99.06917      118.60325       33.79484
H         97.35565      120.44421       34.45663
H         97.55213      121.72868       31.71180
H         99.73929      121.09887       32.80389
H         99.40937      120.46830       31.16710
H        100.36389      118.41311       30.92355
H        100.27946      117.16071       32.16892
N         95.40582      119.67864       32.49640
C         94.34365      118.76824       32.10520
C         94.57416      117.31891       32.48590
O         93.65049      116.53988       32.29369
H         95.17445      120.31349       33.27238
H         94.12326      118.87481       31.02194
H         93.42916      119.07069       32.66231
N         95.74397      116.86626       33.02264
C         95.95218      115.47470       33.42863
C         96.53901      115.40979       34.82744
O         96.85107      116.45222       35.39119
C         96.90408      114.77009       32.42811
C         96.30722      114.69918       31.01638
O         98.16654      115.38728       32.40087
H         96.53392      117.51775       33.12856
H         94.98901      114.91818       33.43639
H         97.05429      113.71865       32.75328
H         98.06997      116.25500       31.93080
H         97.00439      114.15713       30.34355
H         95.33921      114.15563       31.03930
H         96.13907      115.71657       30.60387
N         96.76447      114.20576       35.43499
C         97.51353      114.09092       36.68257
C         98.79400      113.29881       36.45044
O         98.92398      112.61032       35.44617
C         96.65089      113.54526       37.86407
C         96.15706      112.09248       37.63727
C         95.48391      114.51311       38.13985
C         95.40396      111.51304       38.84200
H         96.45349      113.34019       34.96720
H         97.85781      115.10000       36.99015
H         97.29273      113.54053       38.77032
H         97.03926      111.44020       37.46263
H         95.49680      112.03745       36.74624
H         94.77802      114.53649       37.28291
H         94.92737      114.22919       39.05569
H         95.87124      115.53884       38.31233
H         95.14039      110.45232       38.64644
H         96.03952      111.55618       39.75006
H         94.45658      112.05688       39.03397
N         99.81210      113.41472       37.34201
C        101.10517      112.74422       37.25476
C        101.21836      111.82428       38.47191
O        100.23218      111.71059       39.18201
C        102.19276      113.84487       37.20735
C        103.55181      113.41940       36.71042
O        104.45591      114.23875       36.68338
O        103.76911      112.19068       36.20317
H         99.66956      114.03601       38.14450
H        101.16222      112.13943       36.32314
H        102.27219      114.31547       38.21138
H        101.86845      114.63057       36.49255
N        102.32902      111.09935       38.78280
C        102.33487      110.16865       39.90769
C        102.11951      110.86978       41.26042
O        101.16484      110.49020       41.92336
C        103.57251      109.24101       39.86370
C        103.51995      108.15913       40.91791
C        102.45203      107.24182       40.94959
C        104.54659      108.04474       41.87084
C        102.40958      106.23874       41.92027
C        104.50236      107.03444       42.83709
C        103.43408      106.13392       42.86289
H        103.16225      111.15159       38.18859
H        101.47096      109.48626       39.74905
H        104.51282      109.80848       39.94520
H        103.60039      108.74180       38.87066
H        101.65056      107.29639       40.22471
H        105.38286      108.73274       41.86488
H        101.58250      105.54068       41.93815
H        105.29762      106.94841       43.56574
H        103.40071      105.35292       43.61106
N        102.90833      111.88213       41.75655
C        102.68290      112.53735       43.04832
C        101.26984      113.05688       43.23210
O        100.66738      112.80626       44.26631
C        103.66067      113.71921       43.03787
C        104.79996      113.16217       42.22647
C        104.05641      112.46485       41.08991
H        102.94908      111.82481       43.86141
H        103.24530      114.56458       42.44279
H        103.92557      114.09929       44.04829
H        105.55964      113.90333       41.90141
H        105.30208      112.38377       42.84805
H        103.69629      113.17992       40.31724
H        104.75818      111.74197       40.65224
N        100.67450      113.76586       42.23359
C         99.31096      114.29119       42.29146
C         98.34569      113.16524       42.62209
O         97.60880      113.27351       43.59188
C         98.94104      114.92974       40.93549
C         99.81574      116.15052       40.58430
C         99.57876      116.59154       39.17023
O         98.34950      116.95028       38.76235
O        100.50475      116.60645       38.37504
H        101.21578      113.88615       41.36460
H         99.23494      115.07257       43.08014
H         97.87482      115.24815       40.93117
H         99.06585      114.14542       40.17126
H        100.89518      115.91370       40.67773
H         99.58934      116.98290       41.28282
N         98.34516      112.02377       41.88510
C         97.52339      110.87928       42.20099
H         96.44991      111.14831       42.13894
H         97.73496      110.05926       41.47999
H         97.76425      110.51555       43.22227
H         98.98543      111.94608       41.09288
Ca        99.62615      118.50549       36.43141
O        102.31347      117.41954       35.87397
H        102.99041      117.16723       36.55041
H        102.81215      117.46691       35.02044
O        100.33050      115.69068       34.58523
H        100.79449      114.90571       34.20012
H         99.39924      115.38738       34.71491

Ca 1.0



