%chk=holoCaM.loop1.water2.frame16.chk
%nprocshared=20
%mem=10GB
%nosave
#b3lyp/svp scf=(tight,noincore,xqc) Test 
#IOP(5/87=12) Density=Current Pop=(MK,readradii) iop(6/33=2) iop(6/42=6)

holoCaM.loop1.water2.frame16 

   0  1 
C         80.77732       12.56197       15.53258
C         81.48055       11.37694       14.96275
O         82.41867       10.86761       15.56047
H         79.71746       12.31423       15.74766
H         81.28689       12.92085       16.44814
H         80.81047       13.36833       14.76740
N         81.10235       10.93437       13.73999
C         81.79778        9.89489       13.01244
C         83.29360       10.25112       12.86187
O         83.63047       11.32536       12.38844
C         81.09569        9.70408       11.65591
C         81.63393        8.53771       10.92276
O         82.61977        7.83006       11.47541
O         81.15752        8.21444        9.85859
H         80.30077       11.40049       13.28663
H         81.68625        8.93828       13.58010
H         81.17806       10.62581       11.04426
H         80.02052        9.47968       11.83917
N         84.22351        9.37210       13.32650
C         85.67359        9.53222       13.41714
C         86.35877        9.49824       12.04932
O         87.29514       10.25409       11.83028
C         86.21951        8.32211       14.24822
C         87.72186        8.36428       14.61086
C         88.03781        8.71980       16.07795
C         87.60639       10.13347       16.47706
N         88.14224       10.49428       17.79232
H         83.85385        8.50573       13.70428
H         85.91152       10.45853       13.98141
H         86.04045        7.40421       13.64334
H         85.63385        8.17777       15.18303
H         88.28656        9.02015       13.91761
H         88.12461        7.33690       14.47640
H         89.13944        8.63325       16.20044
H         87.56746        7.97735       16.76487
H         86.49571       10.19028       16.49460
H         87.99326       10.85622       15.72842
H         87.83347        9.81387       18.52421
H         89.18829       10.51572       17.75480
H         87.80333       11.44952       18.04842
N         86.03378        8.51257       11.16133
C         86.83834        8.12815       10.00055
C         86.09080        8.15879        8.65730
O         86.70783        7.82302        7.65507
C         87.54191        6.77155       10.30229
C         86.71576        5.60191       10.76977
O         87.27587        4.55964       11.05724
O         85.39877        5.68553       10.95145
H         85.22051        7.93454       11.39171
H         87.68177        8.84221        9.86255
H         88.26224        6.96013       11.12732
H         88.12031        6.44742        9.41180
N         84.83079        8.66801        8.52551
C         84.22675        8.96474        7.22535
C         83.63778        7.78017        6.48346
O         84.01413        7.51820        5.35047
H         84.34544        9.02196        9.36195
H         84.95589        9.51591        6.59157
H         83.36886        9.65073        7.39438
N         82.63336        7.07604        7.06253
C         81.82087        6.03361        6.42489
C         80.30894        6.24551        6.67105
O         79.52449        5.41024        6.24190
C         82.24924        4.65428        6.97275
C         82.51416        4.68815        8.44408
O         83.61201        4.37104        8.87233
O         81.58162        5.15917        9.28271
H         82.43820        7.29910        8.04500
H         81.97612        6.00901        5.32336
H         83.19163        4.34243        6.47620
H         81.47943        3.88618        6.74088
N         79.82925        7.31153        7.37249
C         78.44416        7.49445        7.78220
C         77.94343        6.40717        8.72274
O         76.81505        5.97482        8.55051
H         80.47184        8.05625        7.65352
H         77.77240        7.60176        6.90265
H         78.39113        8.44878        8.35287
N         78.68857        6.00526        9.79719
C         78.22543        5.09836       10.85963
C         79.08714        5.21872       12.12453
O         80.18457        5.75804       12.09838
C         78.11731        3.58027       10.45767
C         77.02741        3.24463        9.44913
O         79.32999        3.03508       10.01894
H         79.59603        6.46133        9.91168
H         77.22577        5.46640       11.17383
H         77.84093        3.02096       11.37671
H         79.80391        3.72362        9.49931
H         76.04842        3.60629        9.82916
H         77.25328        3.66911        8.45412
H         76.96849        2.14204        9.32484
N         78.56727        4.77364       13.30373
C         79.20626        4.86423       14.61372
C         79.27719        3.47631       15.23862
O         78.29164        2.75298       15.24543
C         78.42084        5.88421       15.50513
C         78.87251        7.32354       15.11836
C         78.63913        5.63439       17.01476
C         78.12043        8.44775       15.83221
H         77.61389        4.38024       13.28494
H         80.24860        5.24485       14.53776
H         77.33035        5.75715       15.32276
H         78.73820        7.47534       14.02637
H         79.95709        7.43935       15.34805
H         79.71020        5.71169       17.28525
H         78.05097        6.33897       17.63316
H         78.26715        4.62639       17.29661
H         77.03850        8.39589       15.59374
H         78.26394        8.40902       16.93065
H         78.51819        9.42683       15.48839
N         80.42787        3.08916       15.85664
C         80.64298        1.81113       16.52442
C         80.91567        1.98875       18.01143
O         80.84626        3.09279       18.52665
C         81.84359        1.09707       15.84890
C         81.47312        0.66106       14.43094
O         82.99623        1.90324       15.89334
H         81.21361        3.74578       15.85875
H         79.74931        1.15928       16.44738
H         82.10189        0.15529       16.36435
H         83.08269        2.38104       15.03473
H         80.58573       -0.00377       14.47373
H         81.20970        1.54230       13.82306
H         82.31540        0.10537       13.96761
N         81.24578        0.88999       18.74990
C         81.70088        0.88099       20.13969
C         82.95706        1.73683       20.31482
O         82.97928        2.58210       21.19752
C         81.95749       -0.58753       20.59327
C         80.61972       -1.34675       20.74936
O         82.84065       -1.24055       19.70033
H         81.20890       -0.01700       18.26768
H         80.91731        1.30535       20.80519
H         82.42707       -0.57397       21.59836
H         82.48046       -2.13318       19.44959
H         79.94707       -0.79409       21.43894
H         80.10135       -1.47784       19.77564
H         80.80618       -2.35009       21.18808
N         84.03183        1.58440       19.49323
C         85.24128        2.42109       19.54435
C         84.99990        3.90459       19.16967
O         85.95337        4.67035       19.20970
C         86.35637        1.79902       18.66174
C         85.95817        1.71447       17.18366
C         87.07105        1.17278       16.28561
C         86.66687        1.31160       14.80605
N         85.53425        0.45067       14.42323
H         83.97038        0.82548       18.80594
H         85.63484        2.40569       20.58433
H         86.59633        0.78049       19.04069
H         87.27772        2.41602       18.75698
H         85.69959        2.73415       16.84302
H         85.07969        1.06206       17.06167
H         87.31385        0.11435       16.53367
H         87.98247        1.78694       16.44886
H         87.54401        1.07380       14.16724
H         86.41340        2.38059       14.61573
H         85.12494       -0.08120       15.22308
H         84.78336        1.03061       13.98421
H         85.85079       -0.24978       13.71591
N         83.77033        4.37799       18.80405
C         83.45640        5.77821       18.50073
C         82.33997        6.33895       19.39540
O         82.05277        7.52213       19.26875
C         82.94051        5.90061       17.05702
C         83.89317        5.38376       15.97724
C         83.19999        5.48611       14.64536
O         82.82682        4.39296       13.96511
O         82.89628        6.57154       14.20202
H         83.01316        3.70891       18.72404
H         84.35953        6.41377       18.62356
H         82.68630        6.95996       16.83077
H         82.00349        5.32041       17.00689
H         84.14451        4.32557       16.17917
H         84.83624        5.97320       15.97018
N         81.62477        5.56305       20.26451
C         80.50404        6.05203       21.04614
H         79.58813        5.48389       20.77089
H         80.70836        5.89067       22.12430
H         80.30018        7.13018       20.87910
H         81.83909        4.56831       20.37217
Ca        83.23077        5.74189       11.26855
O         84.48177        3.01198       11.68297
H         85.46094        3.09561       11.74862
H         84.34309        2.32977       10.97974
O         81.72222        2.79095       11.73706
H         82.24243        1.97472       11.93699
H         81.54990        2.70503       10.77128

Ca 1.0



