%chk=holoCaM.loop2.water2.frame362.chk
%nprocshared=20
%mem=10GB
%nosave
#b3lyp/svp scf=(tight,noincore,xqc) Test 
#IOP(5/87=12) Density=Current Pop=(MK,readradii) iop(6/33=2) iop(6/42=6)

holoCaM.loop2.water2.frame362 

   -2  1 
C          0.35012       14.43788      101.99977
C          0.24186       13.07452      102.62699
O          0.50332       12.08639      101.95667
H          1.39195       14.60501      101.65231
H         -0.34168       14.51915      101.13720
H          0.10129       15.24095      102.72721
N         -0.10629       12.95420      103.93647
C         -0.14085       11.68453      104.65319
C         -1.27050       10.78226      104.15541
O         -2.39966       11.24281      104.06443
C         -0.32233       11.95846      106.16351
C          0.00294       10.77607      107.03330
O          0.46871        9.75535      106.55780
O         -0.14472       10.87508      108.36649
H         -0.29017       13.82051      104.46666
H          0.85409       11.20158      104.53049
H         -1.36061       12.30462      106.35600
H          0.37844       12.75985      106.48128
N         -1.04100        9.46568      103.88256
C         -2.05883        8.51488      103.44264
C         -2.30479        7.39860      104.46046
O         -3.18336        6.58286      104.21691
C         -1.60001        7.89021      102.11753
H         -0.09592        9.10833      104.02033
H         -3.02644        9.03535      103.28155
H         -0.64071        7.34292      102.26313
H         -2.35530        7.17255      101.73243
H         -1.43919        8.67911      101.35357
N         -1.54628        7.26145      105.58661
C         -1.65892        6.14681      106.51863
C         -1.70462        6.61014      107.97739
O         -2.65640        6.25049      108.65706
C         -0.54833        5.10385      106.22594
C          0.78945        5.66901      105.81894
O          1.48518        6.46240      106.63666
O          1.24603        5.41534      104.71544
H         -0.77101        7.90775      105.74603
H         -2.60699        5.58465      106.35618
H         -0.89139        4.50496      105.35315
H         -0.44796        4.40077      107.08145
N         -0.72106        7.37123      108.54150
C         -0.68222        7.72784      109.95673
C          0.55325        7.18001      110.66236
O          0.67757        7.40163      111.85855
H          0.04550        7.71348      107.95673
H         -1.57304        7.33817      110.49407
H         -0.69200        8.83427      110.05156
N          1.49902        6.44387      110.00248
C          2.66868        5.82705      110.63437
C          3.70971        6.82320      111.16838
O          4.71611        6.37647      111.70083
C          3.30589        4.80791      109.65076
C          4.12584        5.41213      108.53251
N          5.30808        4.85668      108.18036
O          3.72124        6.38845      107.92526
H          1.34269        6.23448      109.01323
H          2.28876        5.21855      111.48454
H          2.48627        4.19824      109.20841
H          3.94958        4.09819      110.21238
H          5.65860        4.01106      108.65304
H          5.86028        5.25295      107.40711
N          3.52969        8.17518      111.09375
C          4.43185        9.15735      111.67286
C          5.59803        9.56107      110.79037
O          6.28856       10.49233      111.17896
H          2.65654        8.54981      110.71267
H          4.76732        8.83608      112.68362
H          3.84532       10.09099      111.81726
N          5.89829        8.93773      109.61258
C          7.00356        9.36359      108.74673
C          6.56301        9.49039      107.29009
O          5.42727        9.18701      106.96519
C          8.19298        8.37899      108.89260
C          8.86283        8.53091      110.26129
O          7.77120        7.05045      108.72667
H          5.35918        8.10622      109.33310
H          7.36723       10.37391      109.03766
H          8.99701        8.61345      108.16014
H          7.66158        6.90352      107.75226
H          9.23724        9.57207      110.38238
H          8.15771        8.30489      111.08689
H          9.73302        7.84546      110.33551
N          7.45597        9.92299      106.35146
C          7.19364        9.99949      104.91608
C          7.65121        8.70272      104.26711
O          8.77720        8.27708      104.48044
C          7.89056       11.26278      104.30453
C          7.16688       12.57989      104.70741
C          8.05489       11.19094      102.77165
C          5.81167       12.81430      104.01469
H          8.41747       10.12898      106.65925
H          6.11335       10.08257      104.72061
H          8.92493       11.30358      104.71262
H          7.81413       13.44114      104.43306
H          7.02605       12.60271      105.80909
H          8.55075       12.11144      102.39533
H          8.70111       10.33482      102.48713
H          7.08038       11.06730      102.26145
H          5.09287       12.00329      104.21800
H          5.36624       13.76511      104.37391
H          5.93292       12.90706      102.91484
N          6.81383        8.06321      103.39749
C          7.13985        6.84214      102.66886
C          7.40297        7.18215      101.21329
O          7.34749        8.34662      100.86257
C          5.97009        5.84580      102.79345
C          5.72553        5.44329      104.21814
O          4.52593        5.66196      104.78614
O          6.60402        4.88995      104.85890
H          5.91138        8.50282      103.17285
H          8.07140        6.38200      103.06419
H          6.18587        4.92428      102.21510
H          5.04679        6.30678      102.37379
N          7.75856        6.21975      100.31286
C          8.12761        6.54851       98.93909
C          6.98014        7.18236       98.15563
O          7.21010        8.26344       97.62683
C          8.74026        5.33255       98.20250
C          9.25437        5.71161       96.83008
C         10.26669        6.67989       96.69053
C          8.73035        5.10122       95.67678
C         10.73751        7.03478       95.42439
C          9.20822        5.45768       94.41101
C         10.20935        6.42449       94.28520
H          7.83495        5.24279      100.62975
H          8.94978        7.29435       99.00169
H          8.01597        4.50599       98.11776
H          9.59516        4.94371       98.79617
H         10.69460        7.16308       97.55905
H          7.95232        4.35202       95.75443
H         11.51346        7.78326       95.32809
H          8.80201        4.98491       93.52634
H         10.57743        6.70047       93.30564
N          5.73392        6.62337       98.01294
C          4.65006        7.24184       97.25504
C          4.41729        8.68785       97.64248
O          4.30145        9.53753       96.77222
C          3.41704        6.40323       97.62318
C          4.02584        5.04183       97.84152
C          5.28225        5.39025       98.63333
H          4.87021        7.14917       96.16715
H          3.01320        6.71826       98.61269
H          2.59219        6.44944       96.87959
H          3.36215        4.29626       98.32861
H          4.33683        4.64945       96.84554
H          5.05712        5.59542       99.70347
H          5.97237        4.53889       98.54386
N          4.36583        9.02456       98.96075
C          4.11488       10.37539       99.44561
C          5.17524       11.33292       98.93276
O          4.83201       12.32297       98.30180
C          4.05684       10.41807      100.99201
C          3.03203        9.42193      101.56733
C          2.74402        9.66252      103.04074
O          3.90732        9.78069      103.79638
O          2.04119        8.56956      103.54923
H          4.52128        8.27074       99.64225
H          3.11623       10.70331       99.07916
H          3.77244       11.45187      101.28801
H          5.05019       10.18824      101.43326
H          3.40018        8.38211      101.44645
H          2.06219        9.51902      101.03455
N          6.49379       11.07818       99.14379
C          7.55082       11.93624       98.66044
H          8.53838       11.49481       98.91818
H          7.48742       12.03338       97.55593
H          7.47306       12.93629       99.13446
H          6.76168       10.22862       99.64685
Ca         3.40177        8.17433      105.30713
O          2.89398        9.41900      108.28736
H          2.00827        9.09620      108.58622
H          3.08764       10.19365      108.87286
O          3.21998       11.53177      106.23875
H          3.03322       12.10175      107.02573
H          4.19868       11.39244      106.26757

Ca 1.0



