%chk=holoCaM-CaMKII.loop4.water1.frame446.chk
%nprocshared=20
%mem=10GB
%nosave
#b3lyp/svp scf=(tight,noincore,xqc) Test 
#IOP(5/87=12) Density=Current Pop=(MK,readradii) iop(6/33=2) iop(6/42=6)

holoCaM-CaMKII.loop4.water1.frame446 

   -3  1 
C         71.54593       81.46683       22.14599
C         71.59377       82.83046       22.77428
O         70.57119       83.30500       23.24201
H         70.83737       81.47913       21.29140
H         72.54314       81.16015       21.76285
H         71.21107       80.71813       22.89258
N         72.76237       83.52383       22.81152
C         72.89948       84.86955       23.36134
C         72.05186       85.85476       22.55609
O         72.21146       85.88886       21.34347
C         74.38158       85.27803       23.26389
C         74.68468       86.60455       23.87875
O         75.77105       87.10903       23.66986
O         73.79190       87.23932       24.66092
H         73.60115       83.06684       22.41895
H         72.60535       84.85993       24.43408
H         74.66172       85.31433       22.18841
H         75.03173       84.52500       23.76261
N         71.14980       86.69408       23.15636
C         70.27935       87.60810       22.40219
C         70.59892       89.09095       22.67972
O         70.11434       89.94140       21.94891
C         68.77073       87.29396       22.70100
C         68.50457       85.76383       22.75283
C         67.85069       87.96924       21.66162
C         67.05673       85.38232       23.07983
H         71.06228       86.66381       24.17819
H         70.46299       87.44164       21.31957
H         68.52738       87.69032       23.71293
H         69.11867       85.33558       23.57083
H         68.80042       85.28256       21.79648
H         67.96762       89.06649       21.64520
H         68.06363       87.56875       20.64704
H         66.78278       87.80161       21.89819
H         66.71997       85.86867       24.01796
H         66.36875       85.66424       22.25896
H         66.98664       84.28195       23.21064
N         71.39725       89.47838       23.71428
C         71.73151       90.87415       24.03187
C         73.24408       91.13360       23.95330
O         73.66240       92.25042       24.22450
C         71.10519       91.29513       25.39334
C         71.52292       90.46601       26.57186
O         72.36106       89.44150       26.37946
O         71.08819       90.70864       27.68578
H         71.77966       88.74534       24.31379
H         71.27652       91.56154       23.28682
H         69.99930       91.22066       25.30779
H         71.35902       92.35846       25.59763
N         74.10854       90.18099       23.49523
C         75.51544       90.41355       23.20616
C         76.40291       90.66821       24.40567
O         77.10439       91.66992       24.39767
H         73.74428       89.26259       23.21539
H         75.60390       91.24960       22.47731
H         75.91944       89.50963       22.70368
N         76.48446       89.77524       25.43694
C         77.47720       89.88596       26.51561
C         78.36143       88.64210       26.65843
O         79.30899       88.70183       27.42893
C         76.81014       90.29678       27.84505
C         75.73444       89.38987       28.36445
O         75.05466       89.75885       29.30854
O         75.42598       88.23690       27.75641
H         75.82198       88.98872       25.43971
H         78.18249       90.71111       26.27647
H         76.32901       91.28243       27.66123
H         77.57685       90.43323       28.63648
N         78.12991       87.49151       25.96097
C         78.97396       86.30711       26.01657
C         78.29190       85.14160       26.70204
O         78.87211       84.06470       26.71927
H         77.31092       87.42145       25.35911
H         79.92013       86.50174       26.56442
H         79.23926       86.02648       24.97428
N         77.10900       85.29634       27.36277
C         76.49272       84.25808       28.17599
C         75.01553       84.10915       27.86596
O         74.46811       84.87346       27.08055
C         76.79630       84.55283       29.67716
C         76.49216       85.97633       30.20881
C         75.03810       86.28112       30.47628
N         74.64258       86.71595       31.69638
O         74.21259       86.17470       29.58846
H         76.67083       86.22205       27.38391
H         76.95503       83.27074       27.95276
H         77.89992       84.44455       29.76659
H         76.34707       83.78804       30.34595
H         76.91715       86.73727       29.52488
H         77.04168       86.09508       31.16735
H         75.32010       86.84697       32.46132
H         73.65538       86.95197       31.87234
N         74.30923       83.11486       28.46777
C         72.87339       82.91666       28.32525
C         72.26698       83.01345       29.70933
O         72.68503       82.26108       30.58098
C         72.57728       81.53284       27.67640
C         71.06556       81.24093       27.61501
C         73.14961       81.46675       26.25127
H         74.81747       82.46279       29.08643
H         72.42205       83.69264       27.67321
H         73.05409       80.73325       28.28614
H         70.88334       80.24404       27.15936
H         70.62307       81.22038       28.63218
H         70.53939       82.00743       27.00873
H         72.68196       82.24323       25.60744
H         74.24796       81.62231       26.25795
H         72.94834       80.47018       25.80203
N         71.24501       83.87947       29.97475
C         70.58190       83.92068       31.27571
C         69.26514       83.17577       31.19644
O         68.91112       82.71015       30.12349
C         70.45713       85.35645       31.84925
C         69.37967       86.23669       31.25039
N         69.44378       86.69676       29.98251
O         68.44010       86.57511       31.95523
H         70.86329       84.43387       29.19830
H         71.19964       83.36178       32.01169
H         71.43931       85.87216       31.80541
H         70.20646       85.24462       32.92683
H         70.23847       86.47973       29.37132
H         68.69983       87.31324       29.62253
N         68.51075       82.96805       32.30982
C         67.29308       82.16185       32.29707
C         66.23879       82.73267       31.36558
O         65.52603       81.96226       30.73739
C         66.71112       82.03633       33.71485
C         65.52767       81.09910       33.73001
C         65.69540       79.73942       33.41187
C         64.24664       81.57804       34.04371
C         64.59830       78.87539       33.40572
C         63.14976       80.71214       34.03404
C         63.32264       79.35700       33.71491
O         62.27320       78.51139       33.70120
H         68.83904       83.36007       33.20552
H         67.56961       81.14380       31.94233
H         66.42097       83.05171       34.06589
H         67.48257       81.64200       34.41104
H         66.67481       79.34708       33.16720
H         64.09465       82.62283       34.28419
H         64.74090       77.83096       33.15776
H         62.16645       81.09674       34.27158
H         61.37466       78.80479       33.90832
N         66.08569       84.07701       31.23055
C         65.13543       84.68681       30.30828
C         65.42915       84.21776       28.88999
O         64.54114       83.68669       28.23784
C         65.22366       86.22513       30.44005
C         64.15885       86.97460       29.62630
C         64.22201       88.46537       29.84902
O         63.42139       89.19212       29.28355
O         65.14151       89.01246       30.67059
H         66.69135       84.69087       31.79402
H         64.10452       84.38134       30.59739
H         66.23652       86.57537       30.14330
H         65.06696       86.48014       31.51221
H         63.15128       86.62115       29.93544
H         64.29644       86.76872       28.54364
N         66.68144       84.35230       28.37007
C         67.05487       83.90836       27.02506
C         66.95686       82.39619       26.85080
O         66.94728       81.94178       25.71487
C         68.49978       84.34738       26.71259
C         68.62402       85.87899       26.68339
C         70.04053       86.35074       26.56778
O         70.26559       87.54808       26.53858
O         71.06857       85.48290       26.51782
H         67.39548       84.79461       28.96779
H         66.36293       84.38657       26.29633
H         68.83063       83.94871       25.72786
H         69.16218       83.92534       27.50045
H         68.21169       86.32222       27.60599
H         68.03748       86.27587       25.83342
N         66.92537       81.55074       27.91607
C         66.83283       80.11438       27.77768
H         65.87509       79.84384       27.28591
H         67.68622       79.72970       27.18041
H         66.86140       79.63803       28.78213
H         66.99377       81.92924       28.86217
Ca        73.23378       87.92635       27.72897
O         71.91813       88.48333       30.30821
H         71.37495       88.61926       31.12369
H         71.54250       89.12289       29.65416

Ca 1.0



