%chk=holoCaM-CaMKII.loop4.water1.frame431.chk
%nprocshared=20
%mem=10GB
%nosave
#b3lyp/svp scf=(tight,noincore,xqc) Test 
#IOP(5/87=12) Density=Current Pop=(MK,readradii) iop(6/33=2) iop(6/42=6)

holoCaM-CaMKII.loop4.water1.frame431 

   -3  1 
C         77.73978       86.91964       30.21914
C         76.29793       87.30319       30.33386
O         75.64581       87.51152       29.32212
H         78.35998       87.67772       30.74241
H         77.89734       85.92846       30.69407
H         78.05320       86.86728       29.15564
N         75.72983       87.40194       31.56396
C         74.33959       87.77473       31.77535
C         74.09446       89.20796       31.30874
O         74.57480       90.14326       31.93259
C         74.00439       87.57519       33.27037
C         72.65322       88.05915       33.66318
O         72.52621       88.99151       34.62344
O         71.66520       87.59754       33.13643
H         76.31719       87.17628       32.38222
H         73.69577       87.07969       31.18669
H         74.74552       88.11682       33.89381
H         74.07451       86.48904       33.50456
N         73.35561       89.43311       30.18668
C         73.02291       90.75278       29.65751
C         71.76855       91.26637       30.35920
O         71.74325       92.41734       30.77094
C         72.83925       90.67848       28.09899
C         74.15980       90.19186       27.43170
C         72.42904       92.05174       27.52238
C         74.06598       89.95338       25.92116
H         73.02361       88.61460       29.65860
H         73.86225       91.46585       29.82551
H         72.02983       89.95065       27.86677
H         74.45701       89.22217       27.87348
H         74.97500       90.92271       27.62973
H         73.21470       92.81215       27.72163
H         72.25845       91.99739       26.42808
H         71.47346       92.39971       27.96449
H         73.85551       90.88800       25.36437
H         75.03958       89.56381       25.55249
H         73.28108       89.20080       25.69728
N         70.67899       90.45856       30.50204
C         69.38835       90.89959       31.03337
C         69.45784       91.38622       32.47614
O         69.09204       92.52085       32.74747
C         68.35547       89.74439       30.96646
C         68.17993       89.20957       29.57336
O         67.80889       89.94354       28.67284
O         68.42541       87.91153       29.31393
H         70.76175       89.48690       30.16983
H         69.01506       91.72852       30.39232
H         67.37077       90.10732       31.33183
H         68.67159       88.90509       31.62401
N         69.84781       90.53207       33.45710
C         69.79531       90.80663       34.88779
C         68.87567       89.80166       35.56073
O         67.96344       90.19578       36.27259
H         70.17483       89.60751       33.15892
H         69.45036       91.84119       35.10645
H         70.81525       90.69988       35.30814
N         69.04835       88.47106       35.32437
C         68.22377       87.39219       35.85474
C         69.08292       86.29411       36.48066
O         68.53057       85.27972       36.88463
C         67.27546       86.86071       34.74313
C         67.89441       86.41042       33.43858
O         67.16622       86.10146       32.50941
O         69.22425       86.41006       33.25537
H         69.79676       88.19780       34.68349
H         67.54886       87.77136       36.65433
H         66.59576       87.70243       34.48458
H         66.64659       86.04076       35.15287
N         70.43271       86.44352       36.64843
C         71.27862       85.45452       37.28968
C         71.57824       84.23390       36.44565
O         72.32061       83.39707       36.93787
H         70.89219       87.32752       36.39249
H         70.83409       85.15809       38.26553
H         72.26385       85.92415       37.50237
N         71.06961       84.04629       35.18813
C         71.39558       82.86975       34.38320
C         71.94431       83.24009       33.01588
O         71.90907       84.39735       32.62618
C         70.18443       81.90756       34.34019
C         68.84236       82.45172       33.80541
C         68.75954       82.57454       32.30224
N         67.88117       81.81355       31.60533
O         69.46323       83.37283       31.70672
H         70.41977       84.73528       34.79247
H         72.21158       82.29941       34.87789
H         69.99946       81.63261       35.40249
H         70.44367       80.96730       33.80631
H         68.58074       83.41562       34.28911
H         68.06857       81.71977       34.12255
H         67.26527       81.13892       32.08235
H         67.81101       81.89522       30.58149
N         72.53054       82.26874       32.25819
C         73.09964       82.47233       30.92885
C         72.51846       81.39860       30.01110
O         72.64623       80.22788       30.33901
C         74.65225       82.40091       31.01519
C         75.31189       82.54222       29.63255
C         75.19139       83.52125       31.92823
H         72.61855       81.32755       32.66984
H         72.85481       83.47945       30.53988
H         74.95231       81.41976       31.44449
H         74.98980       81.72658       28.95305
H         75.05672       83.51959       29.17178
H         76.41766       82.48086       29.73076
H         76.29844       83.46680       32.00223
H         74.91663       84.52114       31.52515
H         74.78349       83.43298       32.95629
N         71.87810       81.71867       28.84442
C         71.27444       80.72329       27.95973
C         72.07465       80.59525       26.67670
O         73.09104       81.25647       26.53336
C         69.76279       81.00297       27.70828
C         69.41124       82.02318       26.63969
N         69.69233       83.33374       26.77549
O         68.82292       81.64706       25.63659
H         71.84946       82.69370       28.55222
H         71.31230       79.72990       28.45512
H         69.25914       81.25349       28.66549
H         69.31689       80.04461       27.36503
H         70.14433       83.68225       27.61873
H         69.42743       84.00831       26.04236
N         71.67355       79.73251       25.70251
C         72.41601       79.50182       24.46755
C         72.65011       80.78389       23.68468
O         73.75300       80.96619       23.18818
C         71.68739       78.44576       23.61124
C         72.44620       78.10308       22.35125
C         73.76112       77.60784       22.41877
C         71.84275       78.27423       21.09506
C         74.46244       77.30377       21.25003
C         72.54362       77.96071       19.92728
C         73.85823       77.47766       20.00148
O         74.54795       77.17682       18.88325
H         70.80538       79.19880       25.85531
H         73.40914       79.08535       24.74265
H         70.66695       78.81569       23.36578
H         71.57576       77.51574       24.21071
H         74.24981       77.46137       23.37325
H         70.82913       78.64762       21.01783
H         75.47722       76.93206       21.31666
H         72.06407       78.09523       18.96628
H         74.16601       77.28150       18.00035
N         71.67545       81.72414       23.54724
C         71.89304       82.99729       22.86403
C         72.98558       83.80430       23.56778
O         73.95838       84.16842       22.92230
C         70.56826       83.78702       22.79044
C         70.67590       85.04001       21.90519
C         69.36520       85.77313       21.78400
O         68.25950       85.34056       22.42322
O         69.29953       86.77455       21.08965
H         70.75086       81.52926       23.95725
H         72.20097       82.78194       21.81542
H         70.23418       84.06871       23.81083
H         69.79676       83.12320       22.34006
H         70.99543       84.73354       20.88487
H         71.43376       85.73616       22.32288
N         72.89809       84.09309       24.90255
C         73.91876       84.85010       25.64479
C         75.26951       84.12527       25.70071
O         76.22237       84.72041       26.18488
C         73.45604       85.10996       27.10426
C         72.15693       85.93788       27.20635
C         71.59545       85.92911       28.60570
O         71.19373       87.04482       29.22176
O         71.40720       84.87701       29.18122
H         72.06572       83.75341       25.40401
H         74.06552       85.82926       25.13798
H         74.24738       85.63393       27.68455
H         73.30099       84.11376       27.56665
H         71.38132       85.48692       26.56349
H         72.32285       86.97800       26.85228
N         75.42727       82.84612       25.25341
C         76.67678       82.11452       25.28150
H         77.51018       82.70939       25.70672
H         76.54751       81.19449       25.89062
H         76.94623       81.81449       24.24615
H         74.62501       82.33804       24.88315
Ca        70.23385       86.56699       31.22314
O         68.15310       84.78956       29.26770
H         67.91645       85.11779       28.36429
H         68.14024       83.80400       29.18109

Ca 1.0



