%chk=holoCaM.loop3.water2.frame342.chk
%nprocshared=20
%mem=10GB
%nosave
#b3lyp/svp scf=(tight,noincore,xqc) Test 
#IOP(5/87=12) Density=Current Pop=(MK,readradii) iop(6/33=2) iop(6/42=6)

holoCaM.loop3.water2.frame342 

   0  1 
C          6.25653       20.03508       -3.84912
C          7.27255       20.45969       -4.85367
O          6.93635       20.52486       -6.02623
H          5.28480       19.83563       -4.35332
H          6.60092       19.10513       -3.35431
H          6.11380       20.84009       -3.10076
N          8.53990       20.79647       -4.47515
C          9.51556       21.21474       -5.46518
C         10.02979       19.98988       -6.19572
O         10.68750       19.15964       -5.58292
C         10.63578       22.07411       -4.84690
C         11.36307       22.83424       -5.92092
O         12.14573       23.71682       -5.61856
O         11.03658       22.62302       -7.21263
H          8.78546       20.80427       -3.47354
H          8.97538       21.88933       -6.16509
H         11.32459       21.47821       -4.20883
H         10.15200       22.84385       -4.20664
N          9.67329       19.77074       -7.49075
C          9.89616       18.49231       -8.16032
C         11.30974       18.36371       -8.71532
O         11.67600       17.25156       -9.06946
C          8.80543       18.27080       -9.24132
C          7.39542       18.25271       -8.59660
C          6.23400       18.39855       -9.58515
C          6.03085       17.20018      -10.51233
N          4.91274       17.45747      -11.42240
H          9.06602       20.46899       -7.94262
H          9.76374       17.68051       -7.40814
H          8.96774       17.31360       -9.78191
H          8.87628       19.10610       -9.97179
H          7.29246       19.13182       -7.94339
H          7.26920       17.35039       -7.95809
H          6.39229       19.31978      -10.18470
H          5.29974       18.53331       -8.99444
H          5.80997       16.29733       -9.90005
H          6.94994       17.01330      -11.10682
H          4.03817       17.65073      -10.88083
H          5.13158       18.28076      -12.03029
H          4.75733       16.62088      -12.02862
N         12.15935       19.43373       -8.82596
C         13.55216       19.30933       -9.26947
C         14.54972       19.88741       -8.25768
O         15.74409       19.79266       -8.50526
C         13.73671       19.92241      -10.67398
C         13.57450       21.41495      -10.76210
O         13.32211       22.15891       -9.67082
O         13.70526       21.96536      -11.84315
H         11.80284       20.37398       -8.60720
H         13.80983       18.23305       -9.38278
H         13.00943       19.43932      -11.36313
H         14.75866       19.67565      -11.03717
N         14.14651       20.46233       -7.08545
C         15.06376       20.91787       -6.05370
C         15.88115       22.14220       -6.41399
O         17.10013       22.06236       -6.35893
H         13.14578       20.51219       -6.85445
H         15.73194       20.07493       -5.76846
H         14.47449       21.18989       -5.15144
N         15.27667       23.33462       -6.69909
C         16.00675       24.59973       -6.83213
C         15.54917       25.62564       -5.78018
O         15.98337       26.76725       -5.84908
C         15.89947       25.15283       -8.27185
C         14.59332       25.82865       -8.58450
N         14.56366       27.10959       -9.02333
O         13.55374       25.21856       -8.44398
H         14.25205       23.35320       -6.77498
H         17.09339       24.42369       -6.67752
H         16.08080       24.32383       -8.99030
H         16.71002       25.89867       -8.42127
H         15.43214       27.64776       -9.15551
H         13.66876       27.56823       -9.24443
N         14.70340       25.28192       -4.75786
C         14.27330       26.20087       -3.70977
C         13.05188       27.04348       -4.05941
O         12.62468       27.80333       -3.20210
H         14.43294       24.29678       -4.63746
H         15.12680       26.83754       -3.38899
H         13.97781       25.59517       -2.82547
N         12.42788       26.96546       -5.26917
C         11.25137       27.75415       -5.64715
C         10.14361       26.86325       -6.16276
O         10.41772       26.03034       -7.01619
C         11.62956       28.68525       -6.80867
C         12.48575       29.83439       -6.36483
C         13.85722       29.85999       -6.64792
C         11.89717       30.91689       -5.68981
C         14.63315       30.95528       -6.26152
C         12.67028       32.01878       -5.31917
C         14.04301       32.04154       -5.60516
O         14.80103       33.10124       -5.26082
H         12.81804       26.33663       -5.98555
H         10.86036       28.37582       -4.81080
H         10.72279       29.12386       -7.28520
H         12.13503       28.08160       -7.59008
H         14.32556       29.03203       -7.16035
H         10.83472       30.91770       -5.47447
H         15.69245       30.96239       -6.48178
H         12.19985       32.85534       -4.81763
H         14.42645       33.87973       -4.82463
N          8.84170       27.08433       -5.80260
C          7.72928       26.41897       -6.47990
C          6.91107       27.42075       -7.27999
O          7.03915       28.62167       -7.07965
C          6.83177       25.59604       -5.51096
C          6.08559       26.49332       -4.48916
C          7.67421       24.51329       -4.82226
C          5.07743       25.72462       -3.63141
H          8.62951       27.81498       -5.10614
H          8.13402       25.71015       -7.22465
H          6.06453       25.07885       -6.13049
H          5.50588       27.26425       -5.04073
H          6.80807       27.01122       -3.82375
H          8.18261       23.90543       -5.59386
H          8.44268       24.96797       -4.16201
H          7.04424       23.82449       -4.22459
H          4.33277       25.21211       -4.27791
H          5.57987       24.97840       -2.98413
H          4.53923       26.43551       -2.96958
N          6.05678       26.96721       -8.23700
C          5.16887       27.81343       -9.02716
C          3.74201       27.31694       -8.87400
O          3.53309       26.32533       -8.18971
C          5.60811       27.77300      -10.50040
O          5.57323       26.45912      -10.98723
H          6.03519       25.95337       -8.42286
H          5.21617       28.86966       -8.68255
H          6.64723       28.16556      -10.57000
H          4.93805       28.41868      -11.11035
H          5.85280       26.50812      -11.93799
N          2.69354       27.94076       -9.48321
C          1.34235       27.39455       -9.38782
C          1.23548       26.04308      -10.09292
O          0.28369       25.32029       -9.83343
C          0.31045       28.37005       -9.95898
H          2.86045       28.80918      -10.01496
H          1.11062       27.25733       -8.30733
H          0.50107       28.55406      -11.03774
H         -0.71638       27.96401       -9.83557
H          0.36864       29.33712       -9.41442
N          2.15104       25.65672      -11.03110
C          2.10896       24.36886      -11.71281
C          2.56264       23.26196      -10.78119
O          1.82756       22.30540      -10.58201
C          3.01528       24.39591      -12.95143
H          2.88955       26.31966      -11.30673
H          1.07858       24.17728      -12.08857
H          2.96010       23.42362      -13.48652
H          2.67182       25.19345      -13.64471
H          4.07330       24.59722      -12.68238
N          3.78876       23.33382      -10.18577
C          4.33504       22.29981       -9.30998
C          3.41583       22.07699       -8.12684
O          2.95162       20.96028       -7.94122
C          5.75963       22.68098       -8.83929
C          6.75239       22.70607      -10.01732
C          8.13056       23.09661       -9.58290
O          9.15710       22.24291       -9.75050
O          8.33627       24.20445       -9.11859
H          4.35670       24.17391      -10.36717
H          4.41489       21.34238       -9.87353
H          6.11990       21.92755       -8.10680
H          5.73352       23.66765       -8.33075
H          6.43200       23.42416      -10.79927
H          6.79426       21.69343      -10.47020
N          3.07695       23.10348       -7.30368
C          2.15069       22.93763       -6.20625
H          1.17187       22.57758       -6.59131
H          2.55413       22.20755       -5.47420
H          1.99050       23.91141       -5.69655
H          3.46759       24.03697       -7.47563
Ca        11.33319       23.99214       -8.95658
O         10.97029       26.78785       -9.85479
H         11.36300       27.51547      -10.39836
H         10.01026       26.78179      -10.09634
O         10.95911       24.15815      -11.80630
H         11.44215       23.34984      -12.11035
H         11.36105       24.89975      -12.32386

Ca 1.0



