%chk=holoCaM-CaMKII.loop4.water1.frame499.chk
%nprocshared=20
%mem=10GB
%nosave
#b3lyp/svp scf=(tight,noincore,xqc) Test 
#IOP(5/87=12) Density=Current Pop=(MK,readradii) iop(6/33=2) iop(6/42=6)

holoCaM-CaMKII.loop4.water1.frame499 

   -3  1 
C         17.76414       -0.25876      106.77572
C         18.86428       -0.17259      105.75963
O         19.28035       -1.20240      105.25654
H         16.87454       -0.74480      106.32451
H         18.11139       -0.86117      107.64153
H         17.47194        0.74720      107.14427
N         19.37740        1.03350      105.39636
C         20.46956        1.18981      104.44144
C         21.76573        0.61530      105.02491
O         22.17330        1.04210      106.09588
C         20.62143        2.69041      104.10729
C         21.61812        2.99245      103.03032
O         21.83383        4.27059      102.67797
O         22.21943        2.10250      102.45826
H         18.95679        1.88101      105.80903
H         20.19080        0.67151      103.49464
H         20.90502        3.24827      105.02436
H         19.64053        3.07558      103.74924
N         22.45558       -0.36091      104.36306
C         23.66687       -1.02969      104.86626
C         24.89298       -0.73597      103.98457
O         25.99542       -1.06510      104.39862
C         23.37366       -2.56970      104.95716
C         22.21171       -2.83785      105.94472
C         24.59861       -3.42595      105.33787
C         21.58467       -4.22543      105.78410
H         22.07588       -0.66471      103.46054
H         23.91705       -0.64038      105.87783
H         23.05342       -2.89681      103.94934
H         21.39536       -2.12841      105.75057
H         22.55079       -2.67449      106.99053
H         24.99757       -3.12253      106.32811
H         24.34323       -4.50281      105.36625
H         25.39621       -3.34973      104.57347
H         21.19565       -4.34404      104.74902
H         22.30199       -5.03982      105.99923
H         20.73058       -4.32591      106.48611
N         24.79342       -0.10502      102.78071
C         25.93293        0.19985      101.91008
C         26.14015        1.70373      101.75180
O         27.08713        2.09147      101.08081
C         25.76228       -0.50884      100.54186
C         24.36067       -0.38631       99.99141
O         23.72127       -1.40131       99.78151
O         23.76943        0.81895       99.84173
H         23.86607        0.18015      102.44745
H         26.88600       -0.16797      102.35162
H         25.96912       -1.59364      100.69155
H         26.51631       -0.13445       99.81654
N         25.34190        2.61024      102.38139
C         25.56798        4.04260      102.36781
C         25.54074        4.65463      100.99031
O         26.49729        5.33327      100.64331
H         24.56087        2.28622      102.96132
H         26.54342        4.26295      102.85473
H         24.77265        4.52916      102.97243
N         24.47223        4.48724      100.15983
C         24.36370        5.17497       98.87182
C         23.10002        6.02168       98.76561
O         22.95542        6.69726       97.75558
C         24.48980        4.17680       97.69717
C         23.39634        3.15371       97.58482
O         23.43751        2.31864       96.69633
O         22.36264        3.15301       98.43437
H         23.71764        3.85253      100.46036
H         25.21166        5.88332       98.75370
H         25.45806        3.64315       97.80108
H         24.51046        4.74667       96.74279
N         22.13531        6.03114       99.73542
C         20.91417        6.80810       99.62633
C         19.69559        5.93850       99.41992
O         18.63757        6.51384       99.20431
H         22.23798        5.45499      100.57663
H         20.95901        7.48813       98.74979
H         20.79040        7.44599      100.52892
N         19.73596        4.56733       99.45084
C         18.55835        3.76929       99.12723
C         18.63017        2.28343       99.57688
O         19.47109        2.10982      100.68754
C         18.24686        3.87697       97.60513
C         19.40454        3.50321       96.64036
C         19.72913        2.02728       96.52581
N         19.59152        1.38234       95.34268
O         20.15384        1.41111       97.48741
H         20.59884        4.08720       99.72551
H         17.71785        4.20878       99.71327
H         18.01963        4.94254       97.39546
H         17.33429        3.30536       97.33564
H         20.32316        4.06552       96.91280
H         19.10357        3.85924       95.63180
H         19.25721        1.87468       94.50189
H         19.83020        0.38239       95.26312
N         17.25683        1.87289       99.93277
C         17.08273        0.51146      100.45899
C         16.68613       -0.42803       99.33077
O         15.60803       -0.28871       98.76896
C         16.01633        0.55190      101.59026
C         15.70577       -0.84115      102.15891
C         16.48441        1.46817      102.73677
H         16.55129        2.10269       99.19405
H         18.03177        0.15620      100.91856
H         15.07104        0.96901      101.17569
H         14.92777       -0.76180      102.94883
H         15.30681       -1.50995      101.36886
H         16.61433       -1.29866      102.60093
H         16.67151        2.50055      102.37302
H         15.70736        1.52668      103.52852
H         17.42205        1.07886      103.18904
N         17.54551       -1.40312       98.94078
C         17.27854       -2.35696       97.86923
C         16.44640       -3.51249       98.41909
O         16.14543       -3.52440       99.60382
C         18.66611       -2.76968       97.29557
C         18.72721       -3.64831       96.06403
N         19.18825       -3.15751       94.88936
O         18.42524       -4.82724       96.13200
H         18.46257       -1.44163       99.40543
H         16.72491       -1.84821       97.04842
H         19.27874       -3.24615       98.09190
H         19.15304       -1.80765       97.02596
H         19.48066       -2.17421       94.79895
H         19.25640       -3.76847       94.06166
N         16.03277       -4.52145       97.60851
C         15.36477       -5.73486       98.07494
C         16.23472       -6.49826       99.06685
O         15.72309       -6.89879      100.10169
C         15.01828       -6.61691       96.85953
C         14.25430       -7.86388       97.23136
C         12.85129       -7.87688       97.17067
C         14.93613       -9.02980       97.61938
C         12.14120       -9.03650       97.49318
C         14.22413      -10.19135       97.93383
C         12.82277      -10.19819       97.87015
O         12.12270      -11.31247       98.16334
H         16.20955       -4.42642       96.60056
H         14.40352       -5.46345       98.56867
H         15.92626       -6.89185       96.27872
H         14.38466       -6.00353       96.18132
H         12.30669       -6.98806       96.87697
H         16.01827       -9.04345       97.66589
H         11.05961       -9.03276       97.44412
H         14.76230      -11.08566       98.22179
H         12.55525      -12.14120       98.41372
N         17.55711       -6.73743       98.82188
C         18.41968       -7.46906       99.75411
C         18.58102       -6.76895      101.10611
O         19.18015       -7.36988      101.98889
C         19.83169       -7.69820       99.16012
C         19.81995       -8.51675       97.85997
C         21.22299       -8.78875       97.39449
O         21.60105       -8.38440       96.30663
O         22.06811       -9.49342       98.17210
H         17.95340       -6.39469       97.93963
H         17.95500       -8.46336       99.93647
H         20.43704       -8.25945       99.90723
H         20.32753       -6.71764       98.97882
H         19.27138       -7.96901       97.06533
H         19.31223       -9.48936       98.03181
N         18.09673       -5.51499      101.34800
C         18.24932       -4.81436      102.61888
C         16.90657       -4.54378      103.28937
O         16.90714       -4.07706      104.41986
C         18.98103       -3.47855      102.38664
C         20.27192       -3.66591      101.58182
C         20.98990       -2.37239      101.38676
O         22.27313       -2.27361      101.75890
O         20.43786       -1.42168      100.85983
H         17.63402       -5.00743      100.59323
H         18.84887       -5.43535      103.32020
H         19.20362       -3.00722      103.36792
H         18.31703       -2.79683      101.80933
H         20.02856       -4.06644      100.57515
H         20.94431       -4.38195      102.10068
N         15.72086       -4.79556      102.66327
C         14.44024       -4.56305      103.29025
H         13.62458       -4.81299      102.57658
H         14.33646       -5.21139      104.18509
H         14.34316       -3.49599      103.57907
H         15.70316       -5.15050      101.70455
Ca        21.48833        1.14933      100.00244
O         21.62671       -1.87387       97.46977
H         21.84150       -2.71661       97.94345
H         22.07909       -1.16398       97.98734

Ca 1.0



