%chk=holoCaM-CaMKII.loop2.water2.frame176.chk
%nprocshared=20
%mem=10GB
%nosave
#b3lyp/svp scf=(tight,noincore,xqc) Test 
#IOP(5/87=12) Density=Current Pop=(MK,readradii) iop(6/33=2) iop(6/42=6)

holoCaM-CaMKII.loop2.water2.frame176 

   -2  1 
C        109.19541       46.66044        9.31492
C        110.52087       47.25037        8.94588
O        110.70140       47.68213        7.81613
H        108.49375       46.69515        8.45620
H        109.33972       45.60282        9.62249
H        108.76064       47.22811       10.16451
N        111.50919       47.29719        9.87585
C        112.83348       47.83653        9.60674
C        113.51688       46.99525        8.53843
O        113.58751       45.78530        8.70627
C        113.64366       47.83941       10.91222
C        114.93816       48.57881       10.82449
O        115.28204       49.17254        9.81515
O        115.71558       48.60895       11.91096
H        111.30009       46.93475       10.82044
H        112.72432       48.89133        9.28111
H        113.83850       46.79410       11.23618
H        113.05464       48.34774       11.70709
N        114.03575       47.56673        7.41261
C        114.58804       46.79244        6.30392
C        116.10173       46.89565        6.18899
O        116.66824       46.13488        5.41649
C        113.91773       47.23994        5.00158
H        114.02512       48.58960        7.33346
H        114.36944       45.71449        6.46161
H        114.27783       46.63620        4.14257
H        112.81565       47.12676        5.08111
H        114.14621       48.31140        4.80455
N        116.82691       47.78690        6.92095
C        118.28858       47.83369        6.93053
C        118.83622       47.72154        8.36250
O        120.04696       47.77994        8.52738
C        118.80700       49.10079        6.21335
C        118.34459       50.35039        6.88388
O        117.03649       50.66166        6.90390
O        119.14630       51.06195        7.46828
H        116.32562       48.46319        7.50898
H        118.70986       46.97993        6.35551
H        118.47701       49.11299        5.15237
H        119.91999       49.06739        6.21647
N        118.01912       47.50187        9.43841
C        118.50982       47.26623       10.78733
C        119.03476       48.47811       11.54615
O        119.48537       48.26303       12.66289
H        117.01074       47.36622        9.29585
H        119.29073       46.47640       10.74571
H        117.67445       46.85757       11.39771
N        119.00948       49.76244       11.06809
C        119.54789       50.88937       11.85028
C        118.77191       51.22866       13.13927
O        119.20018       52.13061       13.84661
C        119.74575       52.16615       10.99414
C        118.51203       52.81011       10.32952
N        118.52351       54.27162       10.35036
O        117.28452       52.32617       10.76323
H        118.65202       49.93575       10.11759
H        120.57756       50.60621       12.16471
H        120.46295       51.94651       10.17379
H        120.24491       52.91815       11.64244
H        119.49817       54.63512       10.24863
H        118.13415       54.60936       11.25840
N        117.65313       50.55524       13.52590
C        116.95107       50.77302       14.78402
C        115.78301       51.74126       14.68919
O        115.06663       51.86280       15.67107
H        117.34139       49.76827       12.96341
H        117.65547       51.07914       15.58875
H        116.52994       49.79346       15.09975
N        115.53899       52.48108       13.56846
C        114.43754       53.43738       13.43701
C        113.60794       53.14050       12.18088
O        113.88828       52.17479       11.48609
C        115.00535       54.87823       13.43009
C        115.77221       55.18336       14.72362
O        115.85030       55.05997       12.32723
H        116.18985       52.40926       12.78603
H        113.75049       53.36626       14.30851
H        114.15345       55.59233       13.37417
H        115.92174       56.03922       12.17826
H        116.65916       54.52280       14.82529
H        116.12234       56.23686       14.71471
H        115.11174       55.04122       15.60577
N        112.55149       53.94466       11.84540
C        111.65363       53.71477       10.71220
C        111.75720       54.86573        9.70916
O        111.55572       56.01276       10.07909
C        110.19894       53.53884       11.25148
C        110.11509       52.22871       12.08080
C        109.16181       53.52840       10.11132
C        108.76589       52.00778       12.76706
H        112.34160       54.75678       12.44145
H        111.91881       52.78077       10.17882
H        109.95924       54.40758       11.90462
H        110.88361       52.24986       12.88202
H        110.32878       51.35672       11.42250
H        109.34575       52.68515        9.41620
H        108.12911       53.45985       10.50370
H        109.19285       54.48349        9.55316
H        108.54202       52.85306       13.45097
H        107.94302       51.89485       12.03339
H        108.80727       51.06995       13.35990
N        112.01634       54.59632        8.39210
C        112.01196       55.59422        7.32099
C        110.61010       55.74286        6.74012
O        109.70436       55.06120        7.18355
C        112.96659       55.14243        6.18989
C        114.38292       54.99646        6.65310
O        115.05201       56.06694        7.12119
O        114.94487       53.91554        6.57735
H        112.11623       53.61395        8.11094
H        112.34350       56.57998        7.71424
H        112.97564       55.88506        5.36716
H        112.60790       54.17200        5.77620
N        110.35942       56.62192        5.72721
C        109.04719       56.76836        5.09883
C        108.57528       55.47103        4.42471
O        107.48606       55.03141        4.76770
C        109.05833       57.92856        4.07885
C        107.68357       58.19815        3.51066
C        107.40580       57.93130        2.15895
C        106.66798       58.72711        4.32768
C        106.13342       58.18550        1.63664
C        105.40054       58.99005        3.79816
C        105.13292       58.71774        2.45424
H        111.13187       57.21807        5.39463
H        108.31981       57.04773        5.89447
H        109.77037       57.69664        3.26681
H        109.42266       58.86154        4.56058
H        108.16926       57.51778        1.51206
H        106.86055       58.94801        5.37014
H        105.92327       57.97145        0.59676
H        104.62586       59.40669        4.42930
H        104.15075       58.91986        2.04635
N        109.29629       54.79130        3.46934
C        108.81948       53.58346        2.79994
C        108.59762       52.44060        3.77320
O        107.63481       51.70629        3.60095
C        109.90845       53.28891        1.75658
C        111.15625       53.84747        2.39762
C        110.62855       55.14223        3.00623
H        107.86924       53.75202        2.24494
H        109.96646       52.23676        1.40328
H        109.71362       53.93614        0.87065
H        111.46462       53.15760        3.21056
H        112.02561       53.98177        1.71934
H        111.32646       55.44060        3.80389
H        110.54375       55.92574        2.22444
N        109.41518       52.25645        4.84363
C        109.22392       51.19507        5.82671
C        107.86084       51.35318        6.48285
O        107.06585       50.42544        6.42861
C        110.37386       51.21953        6.86075
C        111.73296       50.94809        6.17327
C        112.91522       51.03662        7.09263
O        114.03824       50.92491        6.62886
O        112.76645       51.25013        8.41163
H        110.18222       52.92634        4.98513
H        109.26249       50.20438        5.31955
H        110.19837       50.44303        7.63720
H        110.39586       52.21285        7.35400
H        111.91094       51.69296        5.37407
H        111.71845       49.93905        5.70655
N        107.50625       52.53239        7.06360
C        106.20038       52.80269        7.62905
H        105.51881       51.93001        7.56130
H        106.30980       53.09136        8.69439
H        105.73673       53.65032        7.07906
H        108.18330       53.29942        7.07405
Ca       116.46106       51.70659        8.77291
O        115.07733       54.39594        9.63627
H        114.72358       55.28800        9.87946
H        115.94857       54.58550        9.20757
O        117.93836       54.21942        7.28916
H        118.87281       54.13776        7.60498
H        117.78269       53.39558        6.76362

Ca 1.0



