%chk=holoCaM-CaMKII.loop2.water2.frame169.chk
%nprocshared=20
%mem=10GB
%nosave
#b3lyp/svp scf=(tight,noincore,xqc) Test 
#IOP(5/87=12) Density=Current Pop=(MK,readradii) iop(6/33=2) iop(6/42=6)

holoCaM-CaMKII.loop2.water2.frame169 

   -2  1 
C        118.72308       47.40605       10.73547
C        119.10842       48.83673       10.48257
O        119.15473       49.24396        9.33356
H        117.70454       47.22178       10.33155
H        119.44261       46.72380       10.23939
H        118.70718       47.17537       11.82246
N        119.37593       49.66832       11.52385
C        119.65171       51.09295       11.37632
C        120.92207       51.37987       10.58710
O        121.98214       50.90584       10.97093
C        119.75476       51.73300       12.77286
C        119.98473       53.20544       12.67305
O        121.06098       53.76420       13.25725
O        119.21000       53.89482       12.03497
H        119.32200       49.27704       12.47755
H        118.78340       51.56155       10.86344
H        120.57953       51.26817       13.35503
H        118.80390       51.56164       13.32029
N        120.88159       52.21749        9.50544
C        122.05674       52.61833        8.74009
C        122.29524       54.13373        8.74028
O        123.32487       54.53448        8.21442
C        121.88961       52.13474        7.29449
H        119.97328       52.59461        9.21076
H        122.96589       52.14187        9.16569
H        120.99819       52.61182        6.82945
H        122.78388       52.38689        6.68561
H        121.75003       51.03319        7.27313
N        121.39291       55.03920        9.23671
C        121.57046       56.49228        9.11420
C        121.32792       57.27792       10.41326
O        121.50487       58.48848       10.38701
C        120.70395       57.01035        7.94600
C        119.27064       56.56971        8.02094
O        118.51287       56.89537        9.07604
O        118.79161       55.89429        7.12413
H        120.49383       54.70247        9.60538
H        122.61944       56.73067        8.83011
H        121.13024       56.60907        6.99965
H        120.76171       58.11901        7.88962
N        120.98403       56.68032       11.59023
C        120.89053       57.39129       12.86486
C        119.73994       58.37901       13.01967
O        119.67617       59.00467       14.06887
H        120.88117       55.66273       11.61445
H        121.85053       57.92323       13.04145
H        120.77079       56.64252       13.67801
N        118.79420       58.57952       12.05842
C        117.69270       59.54201       12.18796
C        116.60928       59.16204       13.21538
O        115.62387       59.88253       13.29945
C        117.08224       59.84071       10.79634
C        116.40984       58.69612       10.08573
N        115.92687       58.89419        8.83825
O        116.31082       57.59637       10.60736
H        118.89333       58.07252       11.17309
H        118.12169       60.51930       12.50376
H        117.90561       60.20257       10.14157
H        116.34293       60.66564       10.88905
H        116.01392       59.81276        8.38036
H        115.47846       58.13245        8.31762
N        116.73202       58.10050       14.06652
C        115.76077       57.77548       15.10302
C        114.51262       57.05650       14.62137
O        113.69704       56.72590       15.47052
H        117.59426       57.54946       14.07122
H        115.49626       58.69453       15.67037
H        116.24554       57.07655       15.81909
N        114.29227       56.74946       13.31036
C        113.12430       56.00087       12.84090
C        113.55412       54.74473       12.09188
O        114.74015       54.52735       11.90104
C        112.26520       56.90157       11.91471
C        111.70723       58.11187       12.66276
O        113.02178       57.35261       10.81994
H        114.97402       57.05258       12.60545
H        112.48991       55.67421       13.69410
H        111.37309       56.34142       11.55070
H        112.99591       56.63413       10.13605
H        111.07787       57.77690       13.51493
H        112.52688       58.75533       13.04515
H        111.07507       58.71481       11.97630
N        112.61429       53.90199       11.57885
C        112.92104       52.78599       10.69196
C        112.44996       53.19763        9.31503
O        111.27694       53.51487        9.16497
C        112.22033       51.47071       11.16190
C        112.76825       51.02320       12.54115
C        112.40455       50.35028       10.11023
C        112.04780       49.80151       13.12500
H        111.61855       54.11757       11.73900
H        114.01502       52.59416       10.64427
H        111.12931       51.67007       11.25777
H        112.64400       51.85342       13.26813
H        113.85273       50.79285       12.45846
H        111.85630       49.42997       10.39151
H        111.98284       50.65238        9.12998
H        113.47981       50.10705        9.97536
H        112.46780       49.56655       14.12543
H        110.96255       50.00973       13.23605
H        112.18493       48.89884       12.49598
N        113.30646       53.18355        8.25238
C        112.87854       53.51582        6.90040
C        112.68609       52.24122        6.10811
O        112.94631       51.16728        6.62767
C        113.82564       54.52995        6.22874
C        113.85767       55.82200        7.00633
O        113.25363       56.79849        6.59329
O        114.58425       55.92537        8.13557
H        114.26787       52.84124        8.38705
H        111.86954       53.98299        6.92929
H        113.42530       54.74480        5.21575
H        114.85369       54.12665        6.09953
N        112.09551       52.27915        4.88340
C        111.60764       51.07701        4.22079
C        112.70751       50.08361        3.85772
O        112.56140       48.93744        4.25850
C        110.69057       51.43736        3.03166
C        109.97929       50.22713        2.47469
C        110.15110       49.85784        1.13093
C        109.12293       49.46333        3.29175
C        109.48164       48.74321        0.61626
C        108.46129       48.34822        2.77455
C        108.63941       47.98836        1.43752
H        111.85987       53.19767        4.47789
H        110.94073       50.57423        4.95527
H        111.25382       51.95790        2.23777
H        109.91017       52.14523        3.38730
H        110.79928       50.43258        0.48132
H        108.96140       49.72711        4.32904
H        109.61501       48.46519       -0.42057
H        107.80787       47.76584        3.41153
H        108.12227       47.12615        1.03811
N        113.82858       50.39813        3.13098
C        114.88597       49.43952        2.81398
C        115.34186       48.63953        4.02035
O        115.47199       47.42784        3.91990
C        116.02764       50.31948        2.29182
C        115.26536       51.43174        1.61405
C        114.16689       51.71723        2.63362
H        114.52497       48.76043        2.00845
H        116.57349       50.78718        3.14275
H        116.76049       49.78179        1.65185
H        115.86815       52.31634        1.31975
H        114.79073       51.00349        0.69987
H        114.53417       52.33423        3.48378
H        113.34967       52.23483        2.10556
N        115.53412       49.26225        5.21743
C        115.90761       48.56264        6.44368
C        114.88317       47.48821        6.76680
O        115.25148       46.32686        6.87270
C        115.98817       49.53860        7.63534
C        117.02671       50.65893        7.45493
C        116.97127       51.63798        8.59215
O        117.67733       52.77266        8.51360
O        116.17846       51.49805        9.50967
H        115.35948       50.27670        5.25445
H        116.90786       48.09369        6.30947
H        116.24124       48.96993        8.55784
H        114.99155       50.00845        7.78151
H        116.80441       51.24195        6.53925
H        118.04732       50.24168        7.34780
N        113.56905       47.80859        6.92365
C        112.55368       46.82429        7.21857
H        111.55900       47.31766        7.27515
H        112.52286       46.05895        6.41474
H        112.76717       46.34025        8.19419
H        113.26960       48.78459        6.81761
Ca       116.31921       54.52837        8.33640
O        117.13253       55.44349       12.75351
H        117.98555       55.92129       12.60302
H        117.20094       55.08201       13.67296
O        116.49025       52.37599       12.27564
H        116.29589       51.41012       12.18499
H        116.43678       52.55064       13.24835

Ca 1.0



