%chk=holoCaM-CaMKII.loop2.water2.frame433.chk
%nprocshared=20
%mem=10GB
%nosave
#b3lyp/svp scf=(tight,noincore,xqc) Test 
#IOP(5/87=12) Density=Current Pop=(MK,readradii) iop(6/33=2) iop(6/42=6)

holoCaM-CaMKII.loop2.water2.frame433 

   -2  1 
C         92.80333       67.29179       17.47363
C         94.25315       67.63679       17.25217
O         94.55208       68.77271       16.92572
H         92.21937       67.44885       16.54475
H         92.67944       66.23375       17.79291
H         92.38949       67.93547       18.27980
N         95.21325       66.69698       17.45263
C         96.65192       66.95153       17.41130
C         97.19226       67.36007       16.04333
O         96.94884       66.65828       15.07179
C         97.38378       65.67696       17.86812
C         98.85951       65.89479       17.89280
O         99.36125       66.91601       18.60527
O         99.59951       65.18375       17.23288
H         94.89787       65.75368       17.72989
H         96.88658       67.74944       18.15050
H         97.13942       64.82681       17.19345
H         97.05086       65.41560       18.89433
N         98.04443       68.43091       15.93838
C         98.72892       68.81513       14.70409
C        100.26901       68.82078       14.81001
O        100.89268       69.04998       13.78270
C         98.25513       70.21607       14.29806
H         98.22835       68.99396       16.77920
H         98.45812       68.11009       13.88877
H         98.71967       70.52807       13.33802
H         97.15202       70.22628       14.16991
H         98.52771       70.95756       15.08135
N        100.95568       68.65170       15.98615
C        102.41430       68.85887       16.10027
C        103.14679       67.86168       17.01797
O        104.35889       67.98580       17.13297
C        102.69444       70.31573       16.54771
C        101.82001       70.70393       17.69113
O        101.01097       71.60870       17.55399
O        101.77833       69.95253       18.79652
H        100.41648       68.55228       16.85531
H        102.90073       68.74749       15.10678
H        102.45334       70.99824       15.70326
H        103.76621       70.46135       16.79999
N        102.52293       66.83913       17.66853
C        103.22839       65.83830       18.46983
C        103.80928       66.31962       19.79732
O        104.41780       65.50441       20.47635
H        101.52127       66.70360       17.52476
H        104.03733       65.39183       17.85137
H        102.51434       65.02429       18.72204
N        103.66067       67.59655       20.25116
C        104.20365       68.09000       21.52349
C        103.52290       67.51728       22.78319
O        103.89878       67.92632       23.87319
C        104.18253       69.64061       21.53593
C        102.81780       70.28017       21.50423
N        102.71234       71.62591       21.44286
O        101.80595       69.59856       21.51731
H        103.18509       68.26480       19.64115
H        105.28297       67.82150       21.56513
H        104.74589       69.99465       20.64407
H        104.71588       70.01160       22.43767
H        103.55291       72.22084       21.41603
H        101.78781       72.07364       21.40819
N        102.55747       66.55209       22.72857
C        101.95361       65.93116       23.90221
C        100.91390       66.76238       24.64288
O        100.39289       66.24900       25.62335
H        102.30368       66.14611       21.82469
H        102.75915       65.61087       24.59882
H        101.42287       65.01238       23.57071
N        100.54431       68.01976       24.25995
C         99.55085       68.82969       24.97676
C         98.42243       69.28822       24.05054
O         98.44383       68.96553       22.87043
C        100.25263       70.04942       25.63143
C        101.30761       69.62117       26.66270
O        100.80421       70.90777       24.66202
H        101.00255       68.43838       23.44481
H         99.08032       68.24193       25.79575
H         99.50617       70.63584       26.20505
H        101.63359       70.49004       24.31379
H        102.12456       69.04178       26.18384
H        101.74491       70.51936       27.14711
H        100.83695       68.99204       27.44889
N         97.42089       70.09215       24.52498
C         96.36015       70.66406       23.69756
C         96.65468       72.14412       23.52002
O         96.88731       72.83190       24.50596
C         94.94833       70.48936       24.34106
C         94.64133       69.01009       24.67748
C         93.86983       71.06955       23.39229
C         93.30755       68.82881       25.41558
H         97.44340       70.38021       25.51440
H         96.33769       70.17280       22.69984
H         94.92903       71.06296       25.29500
H         95.43542       68.62432       25.35119
H         94.63750       68.39453       23.75191
H         93.84965       70.50673       22.43342
H         92.86051       71.04337       23.84497
H         94.06367       72.13605       23.16715
H         93.17525       67.76350       25.69526
H         93.29277       69.44218       26.34244
H         92.44244       69.10960       24.78155
N         96.60450       72.70790       22.28241
C         96.87266       74.11346       22.01100
C         95.58175       74.84722       21.67850
O         94.52072       74.23772       21.66474
C         97.89579       74.22563       20.86097
C         99.19952       73.55813       21.19854
O         99.24121       72.35924       21.42518
O        100.33447       74.28180       21.23452
H         96.33137       72.11853       21.48950
H         97.28957       74.61160       22.91420
H         98.10194       75.29368       20.64245
H         97.48112       73.76041       19.93972
N         95.59995       76.19149       21.45408
C         94.39954       76.99430       21.24861
C         93.55957       76.54639       20.05483
O         92.37882       76.32119       20.27380
C         94.74634       78.49390       21.14779
C         93.49734       79.31979       20.93927
C         92.46587       79.31628       21.89687
C         93.34054       80.07507       19.76543
C         91.29603       80.04718       21.67537
C         92.16967       80.80678       19.54988
C         91.14722       80.79072       20.50225
H         96.50900       76.67831       21.48623
H         93.76931       76.87926       22.15900
H         95.45881       78.65522       20.31480
H         95.25360       78.82271       22.08071
H         92.55960       78.74091       22.80913
H         94.11816       80.08839       19.01186
H         90.50272       80.03216       22.41157
H         92.05289       81.38108       18.64047
H         90.23881       81.35264       20.33040
N         94.03260       76.41097       18.77651
C         93.19113       75.97485       17.67041
C         92.73842       74.53410       17.86487
O         91.59948       74.22845       17.53908
C         94.07833       76.20216       16.43957
C         95.47364       75.97853       16.97329
C         95.39855       76.64911       18.34585
H         92.28946       76.61473       17.53748
H         93.79584       75.62722       15.53155
H         94.02519       77.28660       16.18631
H         95.60465       74.88473       17.10389
H         96.29977       76.34372       16.32669
H         96.16540       76.18218       18.99502
H         95.55594       77.74482       18.26299
N         93.55536       73.60728       18.43953
C         93.16409       72.21409       18.65156
C         92.05223       72.06806       19.68705
O         91.53115       70.97097       19.83534
C         94.34991       71.39905       19.18755
C         95.61149       71.46308       18.31640
C         96.75080       70.75694       18.97734
O         97.96037       70.84140       18.42842
O         96.61769       70.16001       20.03188
H         94.48736       73.91383       18.74209
H         92.84056       71.79267       17.67386
H         94.05226       70.33369       19.31108
H         94.59767       71.80967       20.18719
H         95.94828       72.50691       18.17713
H         95.42897       71.03859       17.30952
N         91.69741       73.09984       20.50051
C         90.71675       72.96987       21.55242
H         89.73197       72.69337       21.12466
H         91.04651       72.19850       22.28022
H         90.61784       73.93782       22.09078
H         92.16529       74.00285       20.41038
Ca        99.69265       69.97327       19.51728
O         99.90851       66.82690       21.28924
H         99.77517       65.85173       21.39631
H        100.64174       66.90632       20.62841
O         97.03213       67.48868       20.83186
H         96.94473       66.53060       21.05978
H         96.14679       67.87457       21.04761

Ca 1.0



