%chk=holoCaM.loop2.water1.frame227.chk
%nprocshared=20
%mem=10GB
%nosave
#b3lyp/svp scf=(tight,noincore,xqc) Test 
#IOP(5/87=12) Density=Current Pop=(MK,readradii) iop(6/33=2) iop(6/42=6)

holoCaM.loop2.water1.frame227 

   -2  1 
C         49.21760       92.84472       36.41484
C         48.20373       93.59163       37.22800
O         47.02128       93.29395       37.13350
H         49.94234       92.34948       37.09687
H         48.73052       92.06352       35.79320
H         49.76202       93.55046       35.75517
N         48.61456       94.55537       38.09749
C         47.70142       95.23571       39.00467
C         46.81451       96.23102       38.25768
O         47.27160       97.30503       37.89444
C         48.51968       95.90629       40.13172
C         47.74371       96.47844       41.28452
O         46.40110       96.43190       41.34366
O         48.36371       96.93381       42.22773
H         49.62874       94.72905       38.18046
H         47.08361       94.44818       39.49218
H         49.16224       96.70330       39.70032
H         49.18138       95.12569       40.56884
N         45.51580       95.91809       38.00621
C         44.52153       96.80688       37.42665
C         44.29417       98.01527       38.31761
O         44.40692       99.13480       37.83973
C         43.18738       96.04824       37.26081
H         45.21674       94.97210       38.22209
H         44.85264       97.12974       36.41557
H         43.32487       95.16465       36.60079
H         42.80644       95.68192       38.24026
H         42.41385       96.70432       36.80880
N         43.93815       97.85480       39.62512
C         43.58296       98.96990       40.50398
C         44.73137       99.93015       40.77969
O         44.46626      101.02977       41.24648
C         43.14334       98.44729       41.88801
C         42.01754       97.45801       41.84251
O         42.20636       96.20824       42.31084
O         40.92652       97.78236       41.40469
H         43.86713       96.89232       39.99023
H         42.74020       99.52283       40.03241
H         42.84255       99.29578       42.54117
H         44.01995       97.95133       42.34415
N         46.02895       99.52788       40.68516
C         47.14421      100.31071       41.19087
C         47.00194      100.54390       42.68499
O         47.01681      101.69172       43.10614
H         46.24259       98.60032       40.30255
H         47.21306      101.27582       40.64227
H         48.08542       99.74595       41.01812
N         46.81644       99.49042       43.53748
C         46.59959       99.62990       44.97891
C         47.59046       98.81249       45.81617
O         47.44829       98.78941       47.03077
C         45.12663       99.29214       45.29867
C         44.75796       97.82750       45.24427
N         44.01854       97.28085       46.23652
O         45.08990       97.13609       44.29570
H         46.75648       98.54949       43.13092
H         46.72195      100.69594       45.27179
H         44.49234       99.85270       44.57779
H         44.87592       99.67929       46.31058
H         43.69484       97.84721       47.03367
H         43.73191       96.29469       46.19052
N         48.65256       98.16855       45.24722
C         49.68540       97.47671       46.00706
C         49.33648       96.07819       46.48834
O         50.21878       95.45954       47.06706
H         48.82099       98.27577       44.23950
H         50.02368       98.11597       46.85049
H         50.55994       97.33763       45.33334
N         48.13040       95.48231       46.25758
C         47.85996       94.07732       46.58824
C         47.55524       93.28497       45.33129
O         47.42999       93.85547       44.25821
C         46.70411       93.94271       47.61641
C         47.20548       94.16614       49.04684
O         45.67701       94.84584       47.30023
H         47.38988       96.01592       45.77862
H         48.76408       93.58348       47.00829
H         46.30213       92.90401       47.59367
H         44.95446       94.72148       47.96969
H         46.36620       94.03535       49.76427
H         47.97002       93.39574       49.29166
H         47.64458       95.17546       49.17008
N         47.48219       91.92526       45.40770
C         47.20693       91.04515       44.28190
C         45.96062       90.23019       44.60527
O         45.93004       89.51810       45.59964
C         48.46238       90.16886       43.98049
C         49.66503       91.02865       43.48771
C         48.17599       89.04061       42.97413
C         49.44753       91.76736       42.15359
H         47.65420       91.47643       46.32154
H         46.98925       91.63089       43.36750
H         48.77208       89.66836       44.92524
H         50.54665       90.36263       43.36097
H         49.92819       91.77922       44.26267
H         49.09711       88.44535       42.79437
H         47.41550       88.34379       43.37901
H         47.81290       89.43869       42.00830
H         48.63168       92.51373       42.21893
H         50.37209       92.31810       41.88177
H         49.22611       91.06173       41.32690
N         44.89278       90.29311       43.76320
C         43.68078       89.49843       43.86861
C         43.89947       88.19220       43.14521
O         44.97412       87.98996       42.60084
C         42.50210       90.23982       43.19285
C         42.19990       91.56431       43.82464
O         42.24729       92.58601       43.15798
O         41.83022       91.62726       45.11729
H         45.02647       90.79604       42.89120
H         43.44245       89.29693       44.93645
H         41.57892       89.62870       43.25507
H         42.73834       90.39467       42.11606
N         42.93700       87.23476       43.10466
C         43.16907       85.96761       42.43382
C         43.30819       86.13774       40.91750
O         44.31898       85.68517       40.40160
C         42.11503       84.91506       42.82678
C         42.54503       83.53452       42.39384
C         43.72713       82.96919       42.91264
C         41.77646       82.79585       41.48159
C         44.13468       81.69526       42.51822
C         42.18779       81.51695       41.09170
C         43.36587       80.96846       41.60823
H         42.05140       87.38821       43.61177
H         44.13149       85.58035       42.83311
H         41.12247       85.16826       42.41687
H         42.01511       84.89637       43.93371
H         44.33655       83.50999       43.62603
H         40.86334       83.20877       41.07166
H         45.04635       81.27329       42.92173
H         41.59303       80.95028       40.38843
H         43.68332       79.97962       41.30614
N         42.38425       86.79063       40.13002
C         42.54619       87.00905       38.69136
C         43.90521       87.56285       38.33281
O         44.51844       87.11865       37.37204
C         41.48744       88.07909       38.36775
C         40.39109       87.73189       39.33726
C         41.18575       87.45511       40.60982
H         42.33143       86.06514       38.14406
H         41.84671       89.09152       38.66962
H         41.19216       88.12801       37.29734
H         39.59405       88.49845       39.44634
H         39.93136       86.77857       38.99116
H         41.48385       88.39909       41.11424
H         40.55024       86.84800       41.27378
N         44.41979       88.56279       39.09205
C         45.67002       89.24879       38.81918
C         46.81769       88.25327       38.87318
O         47.50263       88.08800       37.87380
C         45.81949       90.45399       39.78708
C         44.59205       91.39573       39.63896
C         44.66789       92.64947       40.44195
O         44.74801       92.67110       41.77345
O         44.59104       93.71276       39.87500
H         43.87193       88.84483       39.91605
H         45.62491       89.67881       37.79264
H         46.75124       91.00710       39.53277
H         45.89331       90.10416       40.83627
H         43.64998       90.90797       39.94127
H         44.49846       91.67610       38.56618
N         47.03088       87.49910       39.98660
C         48.01142       86.43501       40.07122
H         48.72622       86.64660       40.89211
H         47.48660       85.48065       40.29606
H         48.57620       86.29983       39.12560
H         46.44032       87.65187       40.80823
Ca        45.54533       94.65136       42.36426
O         43.80588       93.79048       45.42874
H         43.10391       94.30104       44.95284
H         43.45295       93.69359       46.34882

Ca 1.0



