%chk=holoCaM-CaMKII.loop1.water2.frame397.chk
%nprocshared=20
%mem=10GB
%nosave
#b3lyp/svp scf=(tight,noincore,xqc) Test 
#IOP(5/87=12) Density=Current Pop=(MK,readradii) iop(6/33=2) iop(6/42=6)

holoCaM-CaMKII.loop1.water2.frame397 

   0  1 
C         39.79791       94.04892       63.41927
C         38.67129       94.27657       62.44970
O         37.99853       95.28131       62.57665
H         40.52122       94.88793       63.36370
H         39.38773       93.98764       64.44945
H         40.33794       93.10109       63.20950
N         38.42911       93.37553       61.45586
C         37.33361       93.39842       60.47066
C         35.97149       93.20839       61.16096
O         35.40042       92.13003       61.08706
C         37.66608       92.29031       59.42884
C         36.63724       91.92572       58.39252
O         36.10702       92.78965       57.50587
O         36.28784       90.75822       58.32261
H         39.09618       92.58922       61.40328
H         37.32079       94.35064       59.90305
H         37.89259       91.35033       59.98102
H         38.59279       92.59205       58.89612
N         35.39462       94.23450       61.85927
C         34.13731       94.13455       62.60468
C         32.89416       94.21294       61.72179
O         31.80675       94.03529       62.25352
C         34.08253       95.24508       63.68085
C         35.14308       95.00990       64.77013
C         35.16307       96.14717       65.79931
C         36.05885       95.83876       67.01371
N         37.45681       95.60082       66.64909
H         35.87392       95.13905       61.88317
H         34.11150       93.15635       63.13456
H         33.09034       95.24218       64.18334
H         34.22135       96.23772       63.19599
H         36.14771       94.92574       64.31253
H         34.90432       94.05161       65.28134
H         34.13328       96.30930       66.18521
H         35.50106       97.08427       65.30417
H         35.66180       94.94784       67.54929
H         36.00755       96.70493       67.70999
H         37.54561       94.72781       66.08222
H         37.84034       96.41644       66.11956
H         38.01459       95.47052       67.52406
N         32.96477       94.44577       60.38086
C         31.80158       94.41530       59.48537
C         31.85801       93.18963       58.56333
O         30.92255       92.98588       57.80274
C         31.62558       95.77004       58.73804
C         32.79696       96.16646       57.87968
O         33.83512       95.32522       57.79739
O         32.81307       97.23953       57.29978
H         33.89397       94.59260       59.97188
H         30.87032       94.27952       60.07799
H         31.47884       96.56284       59.50415
H         30.70968       95.73150       58.10855
N         32.86796       92.27036       58.66377
C         32.84809       90.95814       58.03707
C         33.07131       90.90290       56.54351
O         33.06437       89.79199       56.03020
H         33.63279       92.42450       59.32951
H         31.88873       90.45785       58.29030
H         33.66086       90.34986       58.48989
N         33.28265       92.00276       55.76553
C         33.47675       91.88270       54.31794
C         34.74639       91.11503       53.92014
O         34.84884       90.75580       52.75612
C         33.37093       93.25466       53.61554
C         34.28709       94.30439       54.17792
O         35.61644       94.13827       54.14501
O         33.82210       95.32421       54.66213
H         33.25918       92.93582       56.20061
H         32.62654       91.28070       53.92391
H         32.32586       93.61626       53.73282
H         33.56376       93.13674       52.52719
N         35.73577       90.80961       54.81065
C         36.88358       89.96367       54.49308
C         38.20264       90.70871       54.46416
O         39.22887       90.05211       54.33862
H         35.67519       91.16481       55.76907
H         36.76870       89.46521       53.50756
H         36.93054       89.16355       55.26354
N         38.26385       92.06737       54.50918
C         39.50090       92.83886       54.43189
C         39.63454       93.76135       55.63285
O         38.70865       93.86572       56.42948
C         39.53169       93.65338       53.10295
C         39.80251       92.74377       51.90372
O         38.31716       94.32179       52.88019
H         37.38562       92.59518       54.56870
H         40.39001       92.17006       54.45809
H         40.36005       94.39542       53.11371
H         38.11505       94.83568       53.69961
H         39.02560       91.95702       51.80951
H         39.81308       93.34767       50.97014
H         40.79889       92.26402       52.01251
N         40.79586       94.44391       55.83670
C         41.03116       95.34735       56.95756
C         41.39477       96.71572       56.40659
O         42.39478       96.83845       55.70925
C         42.14193       94.77035       57.88736
C         41.64820       93.43672       58.51323
C         42.52280       95.78144       58.98973
C         42.68907       92.71832       59.37359
H         41.57287       94.29888       55.17039
H         40.11168       95.45136       57.57637
H         43.05051       94.57366       57.27490
H         41.36250       92.73308       57.70260
H         40.74831       93.63091       59.13700
H         42.89640       96.72637       58.54592
H         41.64937       96.00729       59.63629
H         43.35106       95.39899       59.61800
H         42.97259       93.31829       60.26114
H         42.25855       91.76455       59.74616
H         43.59375       92.48968       58.77229
N         40.62056       97.79687       56.69860
C         40.90524       99.14890       56.23073
C         41.81285       99.87812       57.20919
O         42.15737       99.33549       58.25052
C         39.58601       99.95201       56.05107
C         38.65844       99.33012       55.00295
O         38.92918      100.10980       57.28495
H         39.79900       97.65508       57.29948
H         41.41540       99.10256       55.24206
H         39.81566      100.96927       55.67260
H         38.27660       99.37378       57.40443
H         37.74485       99.95450       54.89904
H         39.16746       99.27528       54.01857
H         38.36041       98.31227       55.32317
N         42.21386      101.14954       56.93006
C         42.99185      101.98170       57.84321
C         42.24125      102.18843       59.14765
O         42.82295      101.96652       60.19886
C         43.32117      103.35482       57.20392
C         44.26653      103.20431       56.00556
O         42.14117      104.00452       56.80341
H         41.92432      101.55540       56.02835
H         43.96275      101.48523       58.07177
H         43.84560      103.96650       57.97563
H         42.36492      104.96327       56.67944
H         43.80722      102.59907       55.19729
H         44.51343      104.20627       55.59600
H         45.21201      102.71718       56.32634
N         40.94315      102.60640       59.15447
C         40.17827      102.81532       60.38117
C         40.13872      101.56632       61.25374
O         40.29992      101.69358       62.45977
C         38.75151      103.36229       60.09452
C         37.84505      102.43673       59.26626
C         36.44756      103.03526       59.05881
C         35.58200      102.10371       58.19458
N         34.23845      102.65146       58.00933
H         40.48394      102.77659       58.24867
H         40.67912      103.61530       60.97101
H         38.85037      104.33071       59.55578
H         38.25576      103.56742       61.06928
H         37.72665      101.46869       59.78894
H         38.30213      102.27396       58.27207
H         36.53420      104.02228       58.55385
H         35.95983      103.18086       60.04771
H         35.50436      101.10523       58.68028
H         36.06300      101.97062       57.19945
H         33.75770      102.74308       58.93368
H         34.28971      103.58627       57.54313
H         33.68498      102.00216       57.40439
N         39.91482      100.33066       60.72271
C         39.78598       99.13198       61.55119
C         41.08364       98.73356       62.24078
O         41.01645       97.98824       63.20920
C         39.23257       97.95383       60.72716
C         37.80740       98.26827       60.23966
C         37.22164       97.16123       59.42511
O         36.05527       96.60224       59.79459
O         37.77034       96.79325       58.40092
H         39.79037      100.25391       59.70361
H         39.04471       99.35603       62.35111
H         39.19759       97.04509       61.35822
H         39.90951       97.74997       59.86765
H         37.80797       99.17623       59.61394
H         37.15241       98.45795       61.11709
N         42.29788       99.16657       61.80561
C         43.52824       98.83180       62.49117
H         44.39525       99.26703       61.94961
H         43.51025       99.25174       63.51996
H         43.65616       97.72979       62.54289
H         42.36028       99.73895       60.95721
Ca        35.95308       95.00177       57.18372
O         36.67569       96.94245       53.91919
H         36.26804       97.82257       53.72715
H         37.59018       97.01427       53.54698
O         35.52653       98.57032       56.44570
H         34.90222       97.99645       55.93502
H         35.39665       99.47451       56.06404

Ca 1.0



