%chk=holoCaM.loop1.water2.frame77.chk
%nprocshared=20
%mem=10GB
%nosave
#b3lyp/svp scf=(tight,noincore,xqc) Test 
#IOP(5/87=12) Density=Current Pop=(MK,readradii) iop(6/33=2) iop(6/42=6)

holoCaM.loop1.water2.frame77 

   0  1 
C         84.17851       37.41478       18.25284
C         83.77945       38.49962       17.30411
O         84.09953       39.65524       17.54692
H         84.75396       37.83427       19.10513
H         83.26556       36.91959       18.64578
H         84.80493       36.66785       17.72312
N         83.06401       38.19479       16.18652
C         82.61964       39.21284       15.24707
C         81.67795       40.16918       15.97472
O         80.64697       39.73668       16.46994
C         81.97698       38.54244       14.01599
C         81.59556       39.52663       12.95274
O         80.44311       39.57499       12.56173
O         82.52438       40.32926       12.39753
H         82.83251       37.20479       16.00601
H         83.51972       39.75346       14.88248
H         81.08702       37.95088       14.32421
H         82.71660       37.84362       13.56542
N         82.01951       41.48145       16.11473
C         81.28890       42.46649       16.90773
C         80.61023       43.52259       16.04582
O         79.87455       44.33018       16.59572
C         82.25945       43.14039       17.92352
C         83.36889       43.99787       17.25137
C         84.40740       44.57105       18.23330
C         83.86337       45.57500       19.26364
N         83.31988       46.77947       18.63297
H         82.86847       41.79082       15.65048
H         80.48273       41.94908       17.47143
H         82.73447       42.34361       18.53710
H         81.66952       43.79115       18.60220
H         82.91779       44.81861       16.65607
H         83.94954       43.37614       16.54884
H         85.20290       45.07971       17.64356
H         84.88569       43.72607       18.77466
H         84.70855       45.87272       19.92406
H         83.09186       45.09843       19.90395
H         84.04764       47.23380       18.03408
H         82.47770       46.54966       18.05982
H         83.03453       47.45307       19.37995
N         80.83058       43.59952       14.70240
C         80.21998       44.59979       13.82891
C         79.48010       43.97407       12.63612
O         78.89776       44.71924       11.86065
C         81.26158       45.66021       13.39900
C         82.49231       45.15334       12.70322
O         82.75950       43.84178       12.61927
O         83.27774       45.95283       12.22051
H         81.48707       42.93468       14.28239
H         79.44786       45.17131       14.38903
H         81.60243       46.22237       14.29535
H         80.74866       46.38212       12.72694
N         79.38401       42.62385       12.46838
C         78.53038       41.98560       11.47587
C         78.97123       42.09654       10.02844
O         78.15468       42.47377        9.20045
H         79.83606       41.99648       13.14544
H         77.48664       42.35001       11.59758
H         78.50569       40.89789       11.69409
N         80.20453       41.66571        9.63534
C         80.57604       41.42247        8.23359
C         80.98557       39.95707        8.01586
O         81.33039       39.60825        6.89503
C         81.70914       42.36296        7.76528
C         82.91074       42.30045        8.65223
O         83.42274       41.23453        8.94537
O         83.36563       43.42700        9.21072
H         80.88684       41.42404       10.36992
H         79.71235       41.61311        7.55952
H         81.33586       43.41042        7.75257
H         82.00135       42.10070        6.72577
N         80.97256       39.04319        9.02952
C         81.37883       37.65717        8.88558
C         82.85948       37.50127        8.61335
O         83.21011       36.76317        7.70858
H         80.64012       39.31086        9.96317
H         80.76542       37.14974        8.10944
H         81.18531       37.14390        9.85323
N         83.77245       38.09148        9.43767
C         85.22743       37.86200        9.40981
C         85.88640       38.40516       10.68443
O         85.25697       39.11013       11.46267
C         85.98128       38.44007        8.16494
C         85.81891       37.67915        6.84013
O         85.71248       39.80563        7.99537
H         83.37404       38.65848       10.20034
H         85.39170       36.76270        9.45904
H         87.06960       38.34093        8.36303
H         84.85146       39.87566        7.50702
H         86.52545       38.09928        6.09234
H         86.06794       36.60563        6.98372
H         84.81130       37.78819        6.40380
N         87.16280       38.03049       10.98867
C         87.83648       38.36790       12.23668
C         89.13258       39.11431       11.92394
O         89.98530       38.58828       11.22276
C         88.03970       37.05629       13.05843
C         86.64345       36.46540       13.42259
C         88.85995       37.30616       14.33124
C         86.68342       35.14081       14.18530
H         87.66399       37.40441       10.33944
H         87.20169       39.03096       12.86279
H         88.60250       36.32749       12.43437
H         86.06891       36.27694       12.49180
H         86.07282       37.20159       14.03341
H         89.85069       37.73745       14.08629
H         88.31289       37.98344       15.01255
H         89.06028       36.35590       14.86395
H         87.22587       34.37341       13.59544
H         87.15774       35.25604       15.18061
H         85.64318       34.78994       14.35727
N         89.33893       40.35555       12.45197
C         90.54641       41.15806       12.28940
C         91.49046       40.87555       13.44527
O         91.19083       40.02538       14.26606
C         90.18524       42.67932       12.27140
C         89.21551       43.06158       11.14715
O         89.70200       43.10754       13.52477
H         88.64215       40.71233       13.10607
H         91.05724       40.90390       11.33474
H         91.10455       43.26685       12.07141
H         88.72834       42.93251       13.57273
H         89.64466       42.79483       10.15984
H         88.24237       42.54591       11.27698
H         89.03913       44.15891       11.17244
N         92.63739       41.58803       13.60409
C         93.49017       41.45671       14.78267
C         92.69557       41.75618       16.05110
O         92.76503       40.97901       16.99284
C         94.71177       42.40817       14.69886
C         95.64243       42.04599       13.53515
O         94.28644       43.74158       14.56815
H         92.88135       42.28973       12.89181
H         93.88636       40.41775       14.84955
H         95.29008       42.28458       15.64579
H         95.01391       44.31581       14.92372
H         96.00042       41.00015       13.64275
H         95.13219       42.15142       12.55584
H         96.52498       42.71988       13.54003
N         91.90959       42.86828       16.12977
C         91.19012       43.27504       17.33684
C         90.22157       42.20163       17.79761
O         90.27952       41.77705       18.94277
C         90.36495       44.57857       17.12610
C         91.07474       45.75220       16.43104
C         92.42779       46.12507       17.03842
C         93.04282       47.29049       16.25112
N         94.37833       47.61427       16.74529
H         91.84220       43.45315       15.28838
H         91.93924       43.47327       18.13558
H         90.00784       44.90901       18.12710
H         89.46450       44.37263       16.50668
H         90.39151       46.62953       16.46231
H         91.22427       45.50751       15.35915
H         93.11215       45.25270       16.96931
H         92.30483       46.40590       18.10660
H         92.38529       48.18454       16.33621
H         93.11738       47.01351       15.17482
H         94.76067       48.41322       16.18959
H         94.33365       47.88708       17.75336
H         95.01024       46.78893       16.62658
N         89.28300       41.74099       16.92770
C         88.23744       40.77537       17.25364
C         88.86142       39.49167       17.77855
O         88.52153       39.07821       18.87828
C         87.34693       40.54288       16.00170
C         86.59989       41.83917       15.59523
C         85.87699       41.74030       14.27569
O         86.48337       41.50644       13.24856
O         84.57094       42.01426       14.19112
H         89.33072       42.10519       15.96606
H         87.58132       41.18794       18.05292
H         86.59721       39.74556       16.19754
H         87.99956       40.21195       15.17323
H         87.30425       42.68515       15.48943
H         85.88738       42.10350       16.40402
N         89.82973       38.84869       17.07243
C         90.53336       37.67185       17.54322
H         91.61646       37.90537       17.62690
H         90.17265       37.32848       18.53467
H         90.40852       36.84461       16.81622
H         90.11165       39.23330       16.16752
Ca        84.30793       43.16537       11.19342
O         86.49115       42.69884        9.28653
H         87.13945       42.56975        8.55048
H         86.28241       41.78346        9.60116
O         86.43978       45.14802       11.43878
H         86.08174       45.08881       12.36019
H         87.00131       45.96268       11.44041

Ca 1.0



