%chk=holoCaM.loop2.water1.frame222.chk
%nprocshared=20
%mem=10GB
%nosave
#b3lyp/svp scf=(tight,noincore,xqc) Test 
#IOP(5/87=12) Density=Current Pop=(MK,readradii) iop(6/33=2) iop(6/42=6)

holoCaM.loop2.water1.frame222 

   -2  1 
C         18.02238       67.45424       33.65022
C         16.83984       67.39714       34.57036
O         16.53280       66.32676       35.07498
H         18.93051       67.12127       34.19431
H         17.84758       66.78882       32.77998
H         18.19517       68.48611       33.27659
N         16.12797       68.52445       34.84263
C         14.98563       68.54282       35.74558
C         13.87007       67.65908       35.19246
O         13.32253       67.97786       34.14580
C         14.50418       69.99919       35.89553
C         13.40876       70.19922       36.88689
O         12.99629       69.20988       37.69733
O         12.89276       71.29639       36.96513
H         16.43150       69.40940       34.40586
H         15.32915       68.17416       36.73899
H         14.15067       70.35596       34.90351
H         15.35040       70.64791       36.21279
N         13.51223       66.50777       35.82980
C         12.52913       65.56920       35.28918
C         11.10220       65.86524       35.74278
O         10.19393       65.20528       35.25786
C         12.89432       64.14243       35.72505
H         14.04687       66.23728       36.66457
H         12.57727       65.59719       34.17815
H         12.19044       63.40365       35.28601
H         13.92234       63.88880       35.38989
H         12.85237       64.05401       36.83340
N         10.83570       66.77786       36.71902
C          9.50753       67.00568       37.29429
C          9.10729       68.48385       37.28959
O          8.02172       68.79304       37.76075
C          9.44656       66.39945       38.72108
C         10.46966       66.97156       39.66006
O         11.77164       66.80570       39.37091
O         10.12459       67.55051       40.67175
H         11.62678       67.28018       37.12936
H          8.73550       66.46541       36.70558
H          9.62721       65.30417       38.65248
H          8.42552       66.54425       39.13691
N          9.91007       69.44885       36.75786
C          9.56194       70.85846       36.68888
C          9.37698       71.51166       38.04342
O          8.40246       72.23140       38.20861
H         10.80884       69.18813       36.33361
H          8.64983       70.99784       36.06701
H         10.38898       71.39013       36.17203
N         10.28905       71.34225       39.04536
C         10.22257       72.04997       40.32764
C         11.45988       72.92116       40.56629
O         11.57135       73.50957       41.63260
C          9.94622       71.07050       41.48952
C         11.00302       70.04140       41.79278
N         10.79558       69.16695       42.80557
O         12.03035       69.97520       41.13651
H         11.07061       70.69009       38.88709
H          9.35650       72.74680       40.33670
H          8.99664       70.53481       41.26779
H          9.78769       71.66496       42.41542
H          9.92801       69.20225       43.36113
H         11.48641       68.43654       43.02311
N         12.38986       73.11275       39.58653
C         13.52302       74.01731       39.68501
C         14.64711       73.56913       40.59433
O         15.61999       74.30595       40.67431
H         12.23870       72.68517       38.67235
H         13.16001       75.02119       39.99038
H         13.97314       74.11589       38.67200
N         14.62307       72.39485       41.28767
C         15.72852       71.94765       42.13378
C         16.28856       70.62522       41.61482
O         15.80540       70.11562       40.61207
C         15.27435       71.88624       43.61694
C         14.85713       73.27236       44.14117
O         14.24809       70.94577       43.80936
H         13.80199       71.78119       41.21555
H         16.57365       72.66992       42.09461
H         16.13401       71.57519       44.24669
H         13.38800       71.35339       43.52931
H         14.58624       73.20443       45.21602
H         15.69617       73.99297       44.03509
H         13.98134       73.66400       43.58116
N         17.33910       70.02761       42.24610
C         17.99001       68.80242       41.79071
C         17.72522       67.68181       42.78252
O         18.00281       67.82759       43.96495
C         19.51875       69.06451       41.59354
C         19.80174       69.98391       40.37215
C         20.34506       67.76955       41.48249
C         19.49553       69.35757       38.99901
H         17.71429       70.46523       43.10095
H         17.57619       68.46512       40.82095
H         19.89418       69.58333       42.50389
H         20.88161       70.24990       40.37539
H         19.22496       70.92712       40.47527
H         19.98817       67.14452       40.64450
H         21.42020       68.00734       41.33632
H         20.27209       67.17544       42.41656
H         19.74839       70.08280       38.19810
H         20.11211       68.45123       38.82172
H         18.42555       69.09304       38.88888
N         17.25843       66.48744       42.31537
C         17.10493       65.28314       43.11491
C         18.30994       64.38376       42.89129
O         19.20713       64.74225       42.14365
C         15.82250       64.52654       42.68591
C         14.56429       65.29653       42.93024
O         13.81161       65.55294       42.00482
O         14.22649       65.65006       44.18412
H         17.13324       66.37921       41.30280
H         17.06355       65.52776       44.19873
H         15.71795       63.58615       43.26080
H         15.89794       64.26235       41.60569
N         18.39514       63.18631       43.52703
C         19.48962       62.24129       43.34014
C         19.60805       61.77789       41.87470
O         20.69303       61.92839       41.33094
C         19.30107       61.05389       44.30510
C         20.45752       60.09217       44.29476
C         21.70356       60.47258       44.82265
C         20.29160       58.79534       43.78423
C         22.76341       59.56126       44.84799
C         21.35692       57.89192       43.80013
C         22.59030       58.27219       44.33623
H         17.64093       62.93617       44.18493
H         20.43652       62.75054       43.63254
H         18.36196       60.52910       44.06193
H         19.18177       61.42743       45.34599
H         21.84797       61.46523       45.23192
H         19.33978       58.48603       43.37038
H         23.71703       59.85237       45.26931
H         21.22311       56.89505       43.40169
H         23.41056       57.56701       44.35722
N         18.56810       61.23624       41.14834
C         18.67535       60.77898       39.75731
C         18.83176       61.89661       38.72477
O         18.81068       61.58874       37.54074
C         17.36446       60.00734       39.54198
C         16.39617       60.77936       40.40366
C         17.22874       61.00302       41.65646
H         19.51747       60.06637       39.61946
H         17.05705       59.86024       38.48414
H         17.46960       59.00177       40.01014
H         16.21221       61.76301       39.91677
H         15.41885       60.28581       40.59001
H         16.79365       61.85531       42.20095
H         17.23458       60.08408       42.27855
N         19.02828       63.19444       39.07944
C         19.18520       64.29350       38.13536
C         20.63641       64.72893       38.15669
O         21.26157       64.73008       37.10525
C         18.18049       65.41437       38.49697
C         16.75456       64.84141       38.40814
C         15.63152       65.71139       38.87790
O         15.79012       66.95520       39.37137
O         14.50838       65.23368       38.86070
H         19.07746       63.43932       40.07061
H         18.95895       63.96873       37.09368
H         18.28429       66.27758       37.80296
H         18.38594       65.76431       39.52696
H         16.68927       63.93796       39.04616
H         16.55282       64.54342       37.35624
N         21.26413       65.02371       39.32973
C         22.67950       65.31453       39.43121
H         23.18911       65.30136       38.44526
H         22.82350       66.30978       39.89708
H         23.15834       64.54456       40.07448
H         20.73470       64.99162       40.20838
Ca        13.75012       67.66724       40.02462
O         14.08460       68.34072       42.94051
H         13.68081       68.19663       43.83261
H         15.05205       68.42301       43.12379

Ca 1.0



