%chk=holoCaM.loop2.water2.frame126.chk
%nprocshared=20
%mem=10GB
%nosave
#b3lyp/svp scf=(tight,noincore,xqc) Test 
#IOP(5/87=12) Density=Current Pop=(MK,readradii) iop(6/33=2) iop(6/42=6)

holoCaM.loop2.water2.frame126 

   -2  1 
C        110.67535       87.23333       -6.89943
C        111.50314       86.00536       -7.14876
O        111.24367       84.96864       -6.55569
H        109.88084       87.03676       -6.14917
H        111.32189       88.05975       -6.53802
H        110.19114       87.54647       -7.85023
N        112.51036       86.05372       -8.06034
C        113.29957       84.89288       -8.45463
C        114.16609       84.37668       -7.30762
O        114.94766       85.14657       -6.76673
C        114.20382       85.27345       -9.64990
C        114.79686       84.07971      -10.34102
O        115.56799       84.23746      -11.27279
O        114.42740       82.83632       -9.99504
H        112.67228       86.95137       -8.54432
H        112.58801       84.11120       -8.80365
H        115.00934       85.95549       -9.30138
H        113.60713       85.80949      -10.41757
N        114.10643       83.06938       -6.91871
C        114.93031       82.48826       -5.86047
C        115.84713       81.36535       -6.36457
O        116.57912       80.82033       -5.54980
C        113.99909       81.94346       -4.76906
H        113.44612       82.44905       -7.39925
H        115.58098       83.26389       -5.40260
H        113.34109       81.14668       -5.18124
H        114.58277       81.51938       -3.92425
H        113.35774       82.75945       -4.37287
N        115.84107       80.93732       -7.66420
C        116.60745       79.79040       -8.15408
C        117.44468       80.10477       -9.40449
O        118.63672       79.83386       -9.36300
C        115.68251       78.55503       -8.30453
C        114.45625       78.69540       -9.15516
O        114.18785       79.82752       -9.81049
O        113.65533       77.77599       -9.20855
H        115.19929       81.38344       -8.31825
H        117.33107       79.45663       -7.37639
H        115.30804       78.31239       -7.28478
H        116.27454       77.68716       -8.66462
N        116.91955       80.65738      -10.54274
C        117.68079       80.91226      -11.76002
C        117.11765       80.20133      -12.98817
O        117.68782       80.37861      -14.05540
H        115.94573       80.95478      -10.56602
H        118.74010       80.59830      -11.64445
H        117.67064       82.00612      -11.95393
N        116.03758       79.36356      -12.92850
C        115.54744       78.59066      -14.07659
C        114.85508       79.41313      -15.18296
O        114.39616       78.80256      -16.13914
C        114.62950       77.43912      -13.59020
C        113.31523       77.86809      -12.99820
N        112.43313       76.93853      -12.57187
O        113.03158       79.04881      -12.91213
H        115.60499       79.18536      -12.01208
H        116.42135       78.07355      -14.53183
H        115.17896       76.83853      -12.83189
H        114.40739       76.77178      -14.45063
H        112.65293       75.93402      -12.63211
H        111.52223       77.22578      -12.19260
N        114.76671       80.77710      -15.15853
C        114.19872       81.56399      -16.25051
C        112.67935       81.68427      -16.26474
O        112.18061       82.32922      -17.17629
H        115.23175       81.29691      -14.40762
H        114.56406       81.16137      -17.22196
H        114.58409       82.60245      -16.16973
N        111.87678       81.11888      -15.31661
C        110.41218       81.20722      -15.32929
C        109.84582       81.74994      -14.01642
O        110.58324       81.97022      -13.06681
C        109.82677       79.78814      -15.58712
C        110.11835       79.31670      -17.01078
O        110.35539       78.85385      -14.67896
H        112.31261       80.56822      -14.57180
H        110.05784       81.88827      -16.13419
H        108.71701       79.78774      -15.50980
H        109.94044       79.03421      -13.79581
H        111.20972       79.25966      -17.20030
H        109.67354       78.31086      -17.16881
H        109.65622       80.01719      -17.74003
N        108.49140       81.89547      -13.89578
C        107.78031       82.10066      -12.63881
C        107.24208       80.74067      -12.24857
O        106.54887       80.10423      -13.03120
C        106.63418       83.15208      -12.78472
C        107.17409       84.59883      -12.93407
C        105.60985       83.07878      -11.62732
C        107.79192       85.19194      -11.65689
H        107.90817       81.67559      -14.71735
H        108.46901       82.42801      -11.83287
H        106.06999       82.90367      -13.71100
H        106.32929       85.26292      -13.22042
H        107.92182       84.63039      -13.75438
H        104.81489       83.84208      -11.76576
H        105.10443       82.09101      -11.60973
H        106.09356       83.22549      -10.63921
H        107.03886       85.26708      -10.84394
H        108.64579       84.59066      -11.29654
H        108.15107       86.22189      -11.86072
N        107.54419       80.23821      -11.02643
C        107.15858       78.91239      -10.56915
C        105.86839       79.02099       -9.80312
O        105.34491       80.11656       -9.67519
C        108.24750       78.37723       -9.61799
C        109.61394       78.38997      -10.21642
O        110.05895       79.52247      -10.78591
O        110.36606       77.44315      -10.05404
H        108.06024       80.84017      -10.36828
H        107.03453       78.21970      -11.43056
H        108.01382       77.35664       -9.24863
H        108.29653       79.06479       -8.74344
N        105.28679       77.92670       -9.25037
C        104.10371       78.04193       -8.41694
C        104.41796       78.80653       -7.12165
O        103.71844       79.77697       -6.87157
C        103.45081       76.66429       -8.17994
C        102.21916       76.77991       -7.31567
C        101.13547       77.58851       -7.70762
C        102.14950       76.08337       -6.09824
C        100.01065       77.70456       -6.88809
C        101.01921       76.19748       -5.28531
C         99.95216       77.00963       -5.67797
H        105.69850       76.99633       -9.42357
H        103.34343       78.62065       -8.98780
H        104.16128       75.95149       -7.73012
H        103.16088       76.23529       -9.16408
H        101.15874       78.13561       -8.64124
H        102.97033       75.45420       -5.77656
H         99.18507       78.33500       -7.19194
H        100.97302       75.65779       -4.34895
H         99.07988       77.10039       -5.04487
N        105.43442       78.47398       -6.25457
C        105.73603       79.20642       -5.02369
C        105.88367       80.70455       -5.22814
O        105.25779       81.48160       -4.52163
C        107.08539       78.61863       -4.57092
C        106.98349       77.19659       -5.05627
C        106.37839       77.38848       -6.44047
H        104.94273       78.98296       -4.27665
H        107.92549       79.06904       -5.14821
H        107.30742       78.74670       -3.49052
H        107.93422       76.62118       -5.04730
H        106.23682       76.67421       -4.41665
H        107.14436       77.71237       -7.16906
H        105.93701       76.42743       -6.74169
N        106.71064       81.16351       -6.20306
C        106.97253       82.57104       -6.49414
C        105.68593       83.28183       -6.86787
O        105.41871       84.35372       -6.34348
C        108.00339       82.66752       -7.64032
C        109.35621       82.04676       -7.21947
C        110.33557       81.91957       -8.34414
O        110.06987       82.30436       -9.47031
O        111.50767       81.30656       -8.11210
H        107.16357       80.45022       -6.79317
H        107.41874       83.07534       -5.60737
H        108.17403       83.72970       -7.92581
H        107.59439       82.13123       -8.52210
H        109.21975       81.01756       -6.83725
H        109.80587       82.65020       -6.40179
N        104.81432       82.70776       -7.73698
C        103.55494       83.31069       -8.10755
H        102.94419       83.50621       -7.20050
H        103.73623       84.25837       -8.65464
H        102.98914       82.61755       -8.76769
H        105.03684       81.78530       -8.11763
Ca       112.16022       80.09008      -10.58712
O        113.49994       82.20086      -12.68506
H        113.72798       82.93581      -13.30830
H        114.37393       81.85014      -12.38050
O        111.57509       84.16099      -11.43702
H        110.88993       84.30912      -10.74045
H        111.72477       85.05905      -11.82327

Ca 1.0



