%chk=holoCaM.loop4.water3.frame383.chk
%nprocshared=20
%mem=10GB
%nosave
#b3lyp/svp scf=(tight,noincore,xqc) Test 
#IOP(5/87=12) Density=Current Pop=(MK,readradii) iop(6/33=2) iop(6/42=6)

holoCaM.loop4.water3.frame383 

   -3  1 
C         94.96823       58.71716       80.69698
C         94.51234       57.31251       80.94986
O         93.97264       56.69727       80.04191
H         96.06944       58.77242       80.82874
H         94.72420       59.02478       79.65652
H         94.47391       59.41389       81.40367
N         94.69883       56.73439       82.17210
C         94.34704       55.34440       82.44561
C         94.48692       55.01933       83.92691
O         95.56618       55.18256       84.47971
C         95.24956       54.40382       81.61986
C         94.92419       52.96910       81.89050
O         95.78286       52.21301       82.31498
O         93.67423       52.51958       81.68680
H         95.11161       57.30715       82.92504
H         93.28600       55.18229       82.15111
H         96.31784       54.59791       81.86195
H         95.10598       54.58109       80.53568
N         93.41781       54.52063       84.61662
C         93.43905       54.18546       86.03820
C         93.16891       52.67860       86.26301
O         93.28723       52.23673       87.39584
C         92.38820       55.10045       86.77276
C         92.61570       56.59793       86.40111
C         92.41440       54.91988       88.30575
C         91.57954       57.56543       86.98372
H         92.52884       54.39817       84.11480
H         94.44765       54.40201       86.45308
H         91.37380       54.81918       86.40915
H         92.54291       56.71557       85.29906
H         93.63100       56.92040       86.71718
H         93.40934       55.19670       88.71399
H         91.63907       55.54063       88.79595
H         92.16543       53.88750       88.60838
H         91.77637       58.58857       86.59857
H         90.55357       57.26700       86.67941
H         91.64132       57.61701       88.08886
N         92.77387       51.83644       85.25350
C         92.34526       50.44358       85.47791
C         93.00988       49.39914       84.57562
O         92.76212       48.22080       84.79487
C         90.80715       50.36675       85.31675
C         90.31272       50.79066       83.95301
O         91.18854       51.07198       82.96651
O         89.11691       50.93814       83.76433
H         92.66655       52.22792       84.31425
H         92.57652       50.14662       86.52402
H         90.36762       51.06257       86.06490
H         90.43364       49.34495       85.54600
N         93.83205       49.72768       83.53907
C         94.47329       48.74014       82.67482
C         93.53832       47.90032       81.80332
O         94.04931       47.02962       81.11283
H         94.05182       50.71373       83.37240
H         95.07787       48.05953       83.31194
H         95.17098       49.26703       81.98780
N         92.18379       48.07602       81.77095
C         91.26687       47.23337       80.99380
C         91.38450       47.36188       79.46568
O         90.62289       46.69258       78.78063
C         89.80076       47.47018       81.44580
C         89.24667       48.85102       81.22212
O         89.92907       49.74474       80.75261
O         87.97158       49.10574       81.56890
H         91.77208       48.79165       82.37646
H         91.47914       46.17236       81.25279
H         89.72583       47.25181       82.53312
H         89.14222       46.74961       80.91453
N         92.30952       48.15482       78.85043
C         92.44355       48.24325       77.39891
C         91.37128       49.07940       76.72021
O         91.43698       49.20984       75.50375
H         92.99451       48.66756       79.41321
H         92.48135       47.21933       76.96582
H         93.41129       48.73511       77.16382
N         90.37836       49.69860       77.41765
C         89.35969       50.55722       76.82502
C         89.39800       51.94669       77.45139
O         90.22312       52.20190       78.32344
C         87.96826       49.92177       77.03906
C         87.81834       48.59315       76.28687
C         86.42390       48.04492       76.44710
N         85.95217       47.69533       77.66637
O         85.71081       47.91544       75.46301
H         90.33115       49.56709       78.43240
H         89.52294       50.68261       75.73052
H         87.17820       50.59599       76.64954
H         87.79229       49.78016       78.12802
H         88.55239       47.84596       76.65526
H         88.01377       48.77520       75.20599
H         86.54000       47.78894       78.50716
H         84.99560       47.32561       77.76960
N         88.50731       52.89518       77.05306
C         88.40376       54.23835       77.60948
C         87.05923       54.39082       78.30843
O         86.02492       54.14543       77.69827
C         88.64872       55.32555       76.51401
C         87.83064       55.13142       75.22523
C         88.39583       56.73899       77.07308
H         87.82727       52.64203       76.32008
H         89.19556       54.40659       78.37461
H         89.72012       55.26200       76.21977
H         88.09761       54.17491       74.73028
H         86.74058       55.15378       75.42400
H         88.07490       55.93677       74.49931
H         89.00648       56.91730       77.98267
H         88.66002       57.50926       76.31792
H         87.32283       56.87434       77.33221
N         87.01286       54.85308       79.59095
C         85.78689       55.10184       80.34311
C         85.58191       56.60442       80.47580
O         86.43193       57.36621       80.04285
C         85.91854       54.40433       81.72227
C         84.75631       54.55425       82.66929
N         83.54183       54.04365       82.36506
O         84.92287       55.11726       83.74142
H         87.90228       55.11081       80.04868
H         84.90798       54.69778       79.79362
H         86.83306       54.79998       82.22067
H         86.04651       53.31860       81.56113
H         83.38575       53.54847       81.47588
H         82.75971       54.13319       83.03008
N         84.43270       57.10302       81.00055
C         84.12932       58.53269       81.12025
C         84.84991       59.23130       82.28013
O         84.70366       60.44004       82.39194
C         82.59627       58.73891       81.16183
C         81.91647       57.89899       82.21751
C         81.11011       56.81755       81.81764
C         82.10252       58.14649       83.58579
C         80.52007       55.98592       82.76751
C         81.50239       57.31570       84.53728
C         80.71730       56.22955       84.13253
O         80.16322       55.42410       85.05993
H         83.70222       56.41858       81.23087
H         84.46311       59.04186       80.18702
H         82.22340       58.42026       80.16230
H         82.32888       59.81195       81.27021
H         80.95953       56.59901       80.76694
H         82.71277       58.97506       83.91813
H         79.92017       55.14667       82.43863
H         81.65644       57.51102       85.59040
H         79.63071       54.65345       84.81547
N         85.68701       58.56957       83.13349
C         86.53791       59.24455       84.12005
C         87.95801       59.38281       83.58000
O         88.82394       59.85550       84.30437
C         86.56602       58.43162       85.43840
C         85.24445       58.40786       86.22112
C         84.92439       59.73615       86.85791
O         84.88441       59.83961       88.20094
O         84.69445       60.72091       86.17579
H         85.84654       57.56255       82.99214
H         86.20280       60.28282       84.31381
H         87.34426       58.83054       86.12691
H         86.85456       57.38613       85.18858
H         85.36450       57.66940       87.04401
H         84.40716       58.06722       85.57856
N         88.26269       59.01396       82.30556
C         89.59032       59.04573       81.71939
C         89.58106       60.01624       80.55502
O         90.36086       60.95784       80.57147
C         89.96840       57.60505       81.31107
C         89.98201       56.71864       82.56978
C         90.21287       55.26520       82.32478
O         90.21146       54.51328       83.28604
O         90.39253       54.74549       81.09664
H         87.52128       58.65724       81.69957
H         90.34861       59.39855       82.45496
H         90.97045       57.58668       80.82957
H         89.22029       57.21225       80.58846
H         89.00095       56.77855       83.08612
H         90.76986       57.08890       83.26224
N         88.68142       59.88381       79.53826
C         88.54851       60.83010       78.45074
H         87.52838       61.27111       78.47984
H         89.28479       61.65748       78.51530
H         88.68126       60.30299       77.48407
H         88.02531       59.09560       79.54104
Ca        90.82961       52.55795       81.32713
O         92.73700       53.85771       78.99297
H         92.47417       54.28511       78.14028
H         92.53096       54.53377       79.68438
O         88.15332       52.25636       80.87947
H         87.47754       51.53825       80.81433
H         88.19904       52.47049       81.84608
O         93.49853       51.11263       79.29614
H         93.80753       50.87527       78.38730
H         94.20184       50.75683       79.89568

Ca 1.0



