%chk=holoCaM.loop1.water2.frame131.chk
%nprocshared=20
%mem=10GB
%nosave
#b3lyp/svp scf=(tight,noincore,xqc) Test 
#IOP(5/87=12) Density=Current Pop=(MK,readradii) iop(6/33=2) iop(6/42=6)

holoCaM.loop1.water2.frame131 

   0  1 
C         -2.07051       74.49344       94.73587
C         -1.00868       73.52303       94.31460
O         -1.23021       72.80221       93.35640
H         -2.99253       73.93233       94.99709
H         -1.75465       75.08377       95.62136
H         -2.29056       75.19089       93.90110
N          0.18264       73.46900       94.97385
C          1.25635       72.53222       94.65252
C          0.86795       71.12738       95.11972
O          1.20969       70.74485       96.23079
C          2.55738       73.03269       95.32108
C          3.78376       72.25333       94.94950
O          3.73103       71.29117       94.20005
O          4.96926       72.65316       95.43460
H          0.34096       74.15162       95.73199
H          1.45280       72.55318       93.55676
H          2.44721       73.03448       96.42764
H          2.73571       74.08062       94.99214
N          0.06736       70.34092       94.34718
C         -0.51720       69.08445       94.80592
C          0.49067       67.97023       95.07726
O          0.06906       66.98052       95.66077
C         -1.54547       68.54905       93.77326
C         -2.71929       69.49170       93.43571
C         -3.62770       69.78018       94.63761
C         -4.83855       70.62436       94.21466
N         -5.73119       70.86411       95.34778
H         -0.20553       70.69415       93.42642
H         -1.04191       69.29592       95.76251
H         -1.97927       67.59360       94.14194
H         -1.00317       68.33068       92.82609
H         -3.32683       68.98748       92.65248
H         -2.35699       70.44506       93.00193
H         -3.06279       70.32730       95.42173
H         -3.98920       68.81595       95.05650
H         -5.40241       70.09016       93.41727
H         -4.49107       71.59930       93.80492
H         -5.22813       71.39157       96.09759
H         -6.54991       71.42886       95.02513
H         -6.07954       69.95399       95.72834
N          1.79142       68.00447       94.65249
C          2.71515       66.88258       94.86792
C          3.96081       67.26056       95.67058
O          4.77450       66.38165       95.92041
C          3.03689       66.18199       93.52935
C          3.78730       66.99436       92.51109
O          4.18035       68.25632       92.76436
O          4.05285       66.48999       91.43173
H          2.12081       68.81825       94.11460
H          2.21811       66.09526       95.47580
H          2.07379       65.85804       93.07458
H          3.62912       65.26428       93.74002
N          4.14076       68.51143       96.18348
C          5.21526       68.85251       97.10511
C          6.59242       68.84955       96.48381
O          7.46861       68.14881       96.96929
H          3.43910       69.24107       96.00219
H          5.17877       68.16676       97.97976
H          5.04009       69.88341       97.48202
N          6.86030       69.67053       95.43503
C          8.18767       69.87186       94.85469
C          8.58858       71.35015       94.88222
O          9.58193       71.70438       94.26168
C          8.26125       69.24957       93.44117
C          7.25359       69.71986       92.43027
O          6.32429       70.64031       92.73172
O          7.25255       69.21730       91.31844
H          6.07428       70.21064       95.05044
H          8.96590       69.32994       95.43651
H          8.11584       68.15329       93.55477
H          9.28148       69.41006       93.02833
N          7.90459       72.26047       95.63895
C          8.25712       73.66882       95.73798
C          7.96083       74.49070       94.49689
O          8.22109       75.68423       94.54501
H          7.14015       71.93818       96.24585
H          9.33019       73.76353       96.01325
H          7.65892       74.12314       96.55827
N          7.42229       73.95429       93.36160
C          7.13621       74.74369       92.16400
C          5.67845       74.62173       91.74067
O          4.95275       73.78451       92.25648
C          8.06993       74.29149       91.00821
C          9.51319       74.71800       91.28027
O          8.04864       72.89504       90.84452
H          7.22141       72.94820       93.32372
H          7.30748       75.82531       92.35679
H          7.77228       74.78082       90.05398
H          7.10206       72.61284       90.77783
H          9.89484       74.26196       92.21782
H         10.16414       74.39685       90.43920
H          9.57318       75.82446       91.36283
N          5.18756       75.48143       90.79909
C          3.83177       75.43984       90.26164
C          3.91545       75.41636       88.74024
O          4.35384       76.39145       88.14529
C          3.00894       76.65701       90.80364
C          2.67576       76.40748       92.30162
C          1.71857       76.90726       89.99818
C          1.92296       77.54829       92.98953
H          5.80968       76.22790       90.45232
H          3.30896       74.51339       90.58679
H          3.62667       77.57693       90.69884
H          3.61840       76.24760       92.86518
H          2.05819       75.48491       92.39296
H          1.03821       76.03911       90.05297
H          1.18668       77.80805       90.36170
H          1.95389       77.12959       88.93970
H          1.75457       77.28263       94.05464
H          2.51483       78.48545       92.94132
H          0.92371       77.71304       92.53784
N          3.49594       74.31836       88.04743
C          3.43705       74.25577       86.58743
C          2.31391       75.14928       86.07351
O          1.60502       75.74210       86.87126
C          3.19709       72.79448       86.09552
C          4.32214       71.83653       86.51107
O          1.94096       72.30849       86.50280
H          3.20285       73.49822       88.58649
H          4.41229       74.59027       86.16916
H          3.20236       72.78340       84.98582
H          2.01581       71.97037       87.43137
H          4.12766       70.82521       86.09451
H          5.29843       72.19775       86.12447
H          4.37584       71.75204       87.61379
N          2.05962       75.25222       84.74012
C          0.90366       75.97203       84.20639
C         -0.38844       75.36097       84.72705
O         -1.28733       76.09811       85.10586
C          0.88088       75.94770       82.65759
C          2.07867       76.68722       82.05435
O          0.85260       74.62336       82.18635
H          2.68354       74.76007       84.08481
H          0.94570       77.04178       84.51372
H         -0.04327       76.48781       82.33667
H          0.36199       74.63100       81.32310
H          2.09560       77.73962       82.40955
H          3.03629       76.19949       82.32854
H          1.99338       76.69277       80.94734
N         -0.54209       74.00739       84.75834
C         -1.76951       73.33764       85.17778
C         -2.11561       73.68870       86.61289
O         -3.20713       74.18139       86.86236
C         -1.66080       71.79446       85.02555
C         -1.17557       71.30208       83.64269
C         -1.96016       71.88916       82.46213
C         -1.36520       71.42128       81.12787
N         -2.06162       72.04075       80.00152
H          0.25783       73.43765       84.45642
H         -2.59915       73.67653       84.51913
H         -2.66462       71.36177       85.23238
H         -0.95395       71.38050       85.77772
H         -1.23584       70.19189       83.62218
H         -0.10484       71.55940       83.51296
H         -1.88631       72.99642       82.48358
H         -3.02928       71.59429       82.53365
H         -1.43633       70.31403       81.05000
H         -0.28971       71.70811       81.08456
H         -1.62420       71.71694       79.10892
H         -3.07076       71.76763       80.00812
H         -1.97689       73.08235       80.05742
N         -1.20953       73.47495       87.60804
C         -1.45985       73.79208       89.01354
C         -1.72981       75.27802       89.21616
O         -2.34326       75.62767       90.21475
C         -0.25368       73.36940       89.88349
C         -0.01523       71.84837       89.85892
C          1.25666       71.48348       90.56466
O          1.25534       70.59265       91.56877
O          2.31389       71.95632       90.19231
H         -0.29904       73.08012       87.34075
H         -2.36084       73.22811       89.34383
H         -0.40575       73.68758       90.93800
H          0.64775       73.88702       89.48849
H          0.08556       71.48623       88.81780
H         -0.87770       71.32524       90.32479
N         -1.28755       76.20673       88.32133
C         -1.53480       77.62878       88.43400
H         -2.15430       77.88349       89.31807
H         -0.56753       78.16780       88.50680
H         -2.06299       77.97645       87.52104
H         -0.73452       75.90158       87.51521
Ca         4.68355       71.03235       91.25155
O          6.55734       71.17005       88.76949
H          7.47028       70.86963       89.00274
H          5.98300       70.38672       88.95778
O          3.88978       68.59830       88.79873
H          4.63620       68.00080       88.54079
H          3.90591       68.60122       89.78834

Ca 1.0



