%chk=holoCaM-CaMKII.loop1.water2.frame259.chk
%nprocshared=20
%mem=10GB
%nosave
#b3lyp/svp scf=(tight,noincore,xqc) Test 
#IOP(5/87=12) Density=Current Pop=(MK,readradii) iop(6/33=2) iop(6/42=6)

holoCaM-CaMKII.loop1.water2.frame259 

   0  1 
C         89.63123       -9.24481       52.49782
C         89.62342       -9.71620       51.07297
O         89.43884       -8.89847       50.18483
H         88.64863       -8.79061       52.74303
H         89.81499      -10.08381       53.20205
H         90.43113       -8.48801       52.63616
N         89.82606      -11.03237       50.78341
C         89.83746      -11.57849       49.42710
C         88.45307      -11.38033       48.80257
O         87.51728      -12.08309       49.15689
C         90.24585      -13.06755       49.53339
C         90.46625      -13.90047       48.30312
O         90.46677      -13.42934       47.04367
O         90.68735      -15.08816       48.46844
H         89.99989      -11.67091       51.57561
H         90.61660      -11.02939       48.85223
H         89.46389      -13.57820       50.13604
H         91.20098      -13.12150       50.10235
N         88.23834      -10.32476       47.96919
C         86.93325       -9.92453       47.44447
C         86.39486      -10.91279       46.42518
O         85.25102      -11.32744       46.54534
C         87.05466       -8.51947       46.79475
C         85.73619       -7.85615       46.35142
C         84.77553       -7.60104       47.52310
C         83.59449       -6.71703       47.09952
N         82.68633       -6.48959       48.22395
H         89.04011       -9.70846       47.78554
H         86.23254       -9.82503       48.30020
H         87.71074       -8.57622       45.90423
H         87.53597       -7.83261       47.52630
H         85.23099       -8.45790       45.56483
H         86.01269       -6.87469       45.90536
H         85.32171       -7.07767       48.33791
H         84.39062       -8.56885       47.90820
H         83.03653       -7.19708       46.26568
H         83.98326       -5.73623       46.74316
H         81.91745       -5.84887       47.92154
H         82.26940       -7.39670       48.53559
H         83.19971       -6.04642       49.02064
N         87.16624      -11.29796       45.36911
C         86.67962      -12.06767       44.22938
C         87.13947      -13.52195       44.21638
O         86.86292      -14.19646       43.23307
C         87.01630      -11.30917       42.92207
C         88.48550      -11.17006       42.60216
O         88.82020      -10.54679       41.60774
O         89.43567      -11.72734       43.37721
H         88.13766      -10.97463       45.34426
H         85.56940      -12.12658       44.26241
H         86.57819      -10.28936       42.99778
H         86.52969      -11.82203       42.06445
N         87.70596      -14.12172       45.30611
C         87.90032      -15.56494       45.36171
C         89.04830      -16.04425       44.50547
O         88.81621      -16.66185       43.47601
H         87.86397      -13.57777       46.16658
H         86.95125      -16.05967       45.05664
H         88.09683      -15.88712       46.40763
N         90.32646      -15.88534       44.94724
C         91.50364      -16.38599       44.24260
C         92.73234      -16.51117       45.16026
O         93.84885      -16.50867       44.65943
C         91.78046      -15.51121       42.99595
C         92.06998      -14.06209       43.30895
O         92.30097      -13.28752       42.39533
O         92.06932      -13.60078       44.57415
H         90.44873      -15.43751       45.85702
H         91.30050      -17.42638       43.90375
H         90.89720      -15.54447       42.32369
H         92.64234      -15.93418       42.43671
N         92.59835      -16.73975       46.50258
C         93.70939      -16.96918       47.41746
C         94.62666      -15.78098       47.67463
O         95.53857      -15.94864       48.47112
H         91.65813      -16.83908       46.90645
H         94.31053      -17.82847       47.04877
H         93.28638      -17.25677       48.40540
N         94.48321      -14.57444       47.05204
C         95.38299      -13.43773       47.27758
C         94.62918      -12.15121       47.58840
O         93.41608      -12.08780       47.45306
C         96.29619      -13.21223       46.03197
C         97.56443      -14.05784       46.11798
O         95.63484      -13.52153       44.83093
H         93.73277      -14.45726       46.36216
H         96.02315      -13.61418       48.17020
H         96.66136      -12.16146       45.98951
H         94.75298      -13.07530       44.85218
H         97.32845      -15.13910       46.17783
H         98.19852      -13.86812       45.22475
H         98.14874      -13.75655       47.01549
N         95.34368      -11.07425       48.04202
C         94.78621       -9.75473       48.33116
C         95.61590       -8.71124       47.57908
O         96.83540       -8.77602       47.65064
C         94.83292       -9.43062       49.85677
C         94.28048      -10.59730       50.71563
C         94.02806       -8.13425       50.11897
C         94.39082      -10.33969       52.22311
H         96.35275      -11.20599       48.21262
H         93.71787       -9.71905       48.03178
H         95.89359       -9.27585       50.15661
H         94.88357      -11.50710       50.50846
H         93.22167      -10.81198       50.45336
H         94.08899       -7.81148       51.17554
H         94.41638       -7.29063       49.51748
H         92.95700       -8.28658       49.85624
H         93.74045       -9.50144       52.54423
H         94.06555      -11.24212       52.78071
H         95.44345      -10.11386       52.50004
N         95.02985       -7.67793       46.91029
C         95.78692       -6.62675       46.22238
C         95.60687       -5.30284       46.94360
O         94.84676       -5.24985       47.89300
C         95.31960       -6.50603       44.75014
C         95.50581       -7.81518       43.97540
O         93.98248       -6.07523       44.67696
H         94.00882       -7.59573       46.94140
H         96.87354       -6.86054       46.23408
H         95.93763       -5.73811       44.23826
H         93.39594       -6.84838       44.87554
H         94.90973       -8.62409       44.44621
H         95.15803       -7.68221       42.92865
H         96.57411       -8.11290       43.96761
N         96.28956       -4.18223       46.56669
C         96.06730       -2.89463       47.23166
C         94.66489       -2.35981       46.95191
O         94.18828       -1.52956       47.71354
C         97.13383       -1.84727       46.83881
C         98.52243       -2.26538       47.34591
O         97.14694       -1.68313       45.44329
H         96.97931       -4.25407       45.80422
H         96.15129       -3.05847       48.33042
H         96.87099       -0.87986       47.32643
H         97.76453       -0.93164       45.24468
H         98.84286       -3.22984       46.90080
H         99.27213       -1.48844       47.08675
H         98.50535       -2.36879       48.45255
N         93.95436       -2.77705       45.86615
C         92.58175       -2.36840       45.58395
C         91.65674       -2.93088       46.64467
O         90.90711       -2.18867       47.26241
C         92.18485       -2.88933       44.17953
C         90.74557       -2.54922       43.76098
C         90.50826       -2.98316       42.30362
C         89.06300       -2.78208       41.81853
N         88.64214       -1.38106       41.86112
H         94.40993       -3.42021       45.20185
H         92.51144       -1.25804       45.55736
H         92.31093       -3.99315       44.12665
H         92.88603       -2.42958       43.44873
H         90.58843       -1.45447       43.85429
H         90.03093       -3.07860       44.42892
H         90.74252       -4.06611       42.20530
H         91.19864       -2.41913       41.63817
H         88.36948       -3.40007       42.43000
H         89.00466       -3.14273       40.76682
H         89.30672       -0.78466       41.31693
H         87.69069       -1.30208       41.43452
H         88.58295       -1.04615       42.84881
N         91.66403       -4.26784       46.87947
C         90.77183       -4.95389       47.80533
C         91.00499       -4.46066       49.22280
O         90.07109       -3.96710       49.83881
C         90.98408       -6.47836       47.67918
C         90.65938       -6.96163       46.24400
C         90.97270       -8.40927       46.07621
O         92.08817       -8.83811       46.30721
O         90.02804       -9.25702       45.66682
H         92.34869       -4.82443       46.35031
H         89.71516       -4.74820       47.52130
H         90.33188       -7.01784       48.39972
H         92.04138       -6.71617       47.92631
H         91.24771       -6.42236       45.48232
H         89.58650       -6.77774       46.02159
N         92.24329       -4.52654       49.78364
C         92.57320       -4.01083       51.09590
H         93.33911       -3.21239       50.98784
H         91.69299       -3.58136       51.61689
H         92.99738       -4.82622       51.71780
H         93.00663       -4.93953       49.24375
Ca        90.43099      -11.37649       46.20720
O         94.27904      -11.06777       43.51725
H         94.76127      -11.73151       42.96385
H         94.20680      -10.27788       42.92935
O         91.85283       -9.23726       43.12413
H         91.59857       -8.28077       43.11882
H         91.31705       -9.64440       42.39878

Ca 1.0



