%chk=holoCaM.loop4.water3.frame268.chk
%nprocshared=20
%mem=10GB
%nosave
#b3lyp/svp scf=(tight,noincore,xqc) Test 
#IOP(5/87=12) Density=Current Pop=(MK,readradii) iop(6/33=2) iop(6/42=6)

holoCaM.loop4.water3.frame268 

   -3  1 
C         33.90891      -12.71585       73.82059
C         32.80399      -12.50637       72.83816
O         33.05262      -12.67567       71.65559
H         34.73610      -12.00690       73.60771
H         33.55416      -12.57001       74.86003
H         34.28523      -13.75580       73.71214
N         31.55490      -12.12940       73.24306
C         30.45314      -11.99259       72.29735
C         29.23808      -11.28346       72.88276
O         29.12905      -11.12437       74.09047
C         30.03456      -13.40930       71.84043
C         28.96679      -13.41472       70.80146
O         27.90821      -13.99335       70.99581
O         29.22080      -12.84357       69.61351
H         31.39982      -11.93785       74.24250
H         30.80955      -11.37021       71.45236
H         29.69306      -13.98903       72.72571
H         30.89785      -13.94832       71.40418
N         28.24966      -10.87334       72.03251
C         26.97149      -10.32414       72.47041
C         25.83603      -10.44414       71.41698
O         24.71754      -10.09376       71.76274
C         27.20406       -8.87489       73.02373
C         26.11571       -8.37802       74.00252
C         27.36205       -7.85123       71.88620
C         26.01347       -9.21407       75.28231
H         28.44336      -10.99527       71.04501
H         26.64380      -10.99506       73.28592
H         28.15890       -8.88086       73.59298
H         25.12903       -8.34889       73.49938
H         26.36806       -7.34036       74.31586
H         28.01820       -8.23450       71.09557
H         26.38032       -7.61082       71.42517
H         27.81509       -6.91193       72.27005
H         25.22120       -8.78931       75.93204
H         25.73446      -10.26552       75.07948
H         26.97697       -9.19345       75.83550
N         26.01583      -10.94085       70.14456
C         24.94776      -11.10261       69.15823
C         24.82836      -12.53778       68.61868
O         23.70915      -12.92017       68.30710
C         25.05615      -10.02932       68.05006
C         26.40047       -9.87017       67.40599
O         27.27593      -10.88043       67.37685
O         26.71199       -8.79406       66.92232
H         26.93899      -11.20527       69.80924
H         23.96358      -10.89254       69.63137
H         24.83881       -9.05522       68.53907
H         24.28733      -10.17247       67.26076
N         25.89418      -13.38583       68.46100
C         25.75782      -14.77447       68.01335
C         26.31303      -15.03080       66.61860
O         26.26920      -16.16965       66.17683
H         26.84525      -13.06061       68.66983
H         24.69262      -15.08508       67.98852
H         26.27219      -15.43116       68.74970
N         26.79826      -14.02066       65.84605
C         27.25655      -14.16274       64.45337
C         28.53945      -14.99536       64.25925
O         28.97965      -15.11859       63.12498
C         27.38378      -12.74718       63.82519
C         28.29848      -11.83421       64.58474
O         29.01133      -12.34968       65.60752
O         28.28898      -10.64076       64.34178
H         26.75781      -13.07539       66.24545
H         26.45546      -14.66861       63.87579
H         26.37024      -12.28972       63.87958
H         27.67946      -12.79261       62.75697
N         29.16475      -15.62797       65.29151
C         30.34655      -16.47386       65.16856
C         31.56927      -15.70716       64.72529
O         32.21813      -16.12830       63.77911
H         28.76167      -15.55466       66.22446
H         30.13992      -17.32161       64.47777
H         30.57177      -16.90413       66.16822
N         31.94241      -14.57030       65.38110
C         33.07246      -13.72213       65.00061
C         33.19946      -12.55629       65.97468
O         32.22401      -11.85558       66.20388
C         32.91928      -13.20485       63.55347
C         31.60928      -12.43575       63.30914
C         31.40782      -12.05741       61.86560
N         30.32354      -11.33278       61.51200
O         32.20927      -12.40099       61.00871
H         31.36250      -14.27221       66.17401
H         34.00923      -14.32200       65.04217
H         32.95678      -14.06946       62.86218
H         33.78768      -12.55630       63.30480
H         31.60606      -11.50547       63.91006
H         30.74735      -13.06411       63.61324
H         29.64582      -11.02484       62.22146
H         30.16491      -11.06931       60.52948
N         34.37508      -12.30820       66.61396
C         34.50795      -11.25917       67.62098
C         34.69414       -9.91870       66.93514
O         35.53292       -9.82733       66.04807
C         35.67680      -11.53832       68.60773
C         35.54617      -10.59854       69.82540
C         35.69989      -12.98938       69.12833
H         35.18933      -12.89855       66.39190
H         33.59190      -11.24948       68.24406
H         36.64149      -11.36763       68.08296
H         35.58293       -9.53372       69.52254
H         34.57124      -10.77590       70.33552
H         36.35046      -10.78297       70.56594
H         35.76309      -13.72926       68.30676
H         36.60869      -13.13848       69.74956
H         34.80544      -13.22295       69.73943
N         33.97430       -8.82636       67.32359
C         34.08675       -7.51996       66.69105
C         34.76433       -6.54001       67.64794
O         35.15459       -6.94399       68.73043
C         32.69165       -7.10648       66.13725
C         31.78613       -6.31026       67.04935
N         30.70945       -6.84469       67.66399
O         31.97847       -5.11359       67.14570
H         33.33547       -8.91010       68.11840
H         34.74975       -7.60577       65.80184
H         32.17885       -8.01759       65.75804
H         32.83074       -6.46261       65.24331
H         30.48911       -7.83650       67.57675
H         30.09133       -6.25498       68.24299
N         35.01147       -5.25719       67.28019
C         35.76794       -4.29251       68.09464
C         35.07318       -3.87857       69.41176
O         35.76565       -3.40160       70.30038
C         36.04576       -3.08030       67.18554
C         36.77916       -1.90227       67.76521
C         38.12159       -1.97852       68.17611
C         36.10729       -0.67253       67.83211
C         38.77741       -0.82569       68.63372
C         36.75768        0.46735       68.29092
C         38.09784        0.39959       68.68746
O         38.73838        1.50708       69.11101
H         34.70840       -4.98500       66.33189
H         36.74175       -4.76309       68.36316
H         35.05606       -2.73553       66.81577
H         36.62044       -3.43037       66.29831
H         38.66577       -2.91381       68.11969
H         35.07530       -0.59152       67.51430
H         39.81690       -0.87878       68.93338
H         36.21736        1.40430       68.32362
H         38.29770        2.36932       69.14013
N         33.72866       -4.02040       69.60947
C         33.02499       -3.72351       70.86267
C         33.01109       -4.93474       71.78426
O         32.71344       -4.77743       72.96048
C         31.54523       -3.36113       70.59541
C         31.37255       -2.10271       69.73928
C         29.91449       -1.81656       69.50402
O         29.20749       -2.63875       68.94198
O         29.38217       -0.64547       69.90266
H         33.17918       -4.39380       68.84685
H         33.52920       -2.87457       71.37765
H         31.02103       -3.19836       71.56450
H         31.05731       -4.22251       70.08252
H         31.86892       -2.24055       68.75644
H         31.83815       -1.23747       70.25888
N         33.30025       -6.17706       71.30846
C         33.34226       -7.38558       72.11720
C         34.79015       -7.79196       72.35908
O         35.01302       -8.71728       73.12753
C         32.66596       -8.53422       71.33221
C         31.19906       -8.27122       70.93965
C         30.70709       -9.22734       69.87429
O         29.40552       -9.26973       69.55023
O         31.48692       -9.89576       69.21985
H         33.52528       -6.28337       70.31481
H         32.85382       -7.21322       73.10265
H         32.72209       -9.49225       71.89826
H         33.26511       -8.65572       70.40693
H         31.07468       -7.25387       70.51640
H         30.57489       -8.35091       71.85472
N         35.82193       -7.17821       71.70362
C         37.20457       -7.58133       71.81079
H         37.80889       -6.71431       72.14647
H         37.34747       -8.42578       72.51406
H         37.56172       -7.89627       70.80590
H         35.64471       -6.40326       71.05423
Ca        29.74984      -11.82126       67.67145
O         29.90408      -14.67725       68.02701
H         30.63580      -15.26121       68.33703
H         29.08418      -15.04260       68.44278
O         32.10286      -13.10834       68.89142
H         32.22592      -13.90289       69.46536
H         31.87847      -12.37535       69.51526
O         29.79851       -9.49591       66.13608
H         30.27162       -9.56628       65.27092
H         29.04170       -8.88139       65.96363

Ca 1.0



