%chk=holoCaM-CaMKII.loop2.water2.frame289.chk
%nprocshared=20
%mem=10GB
%nosave
#b3lyp/svp scf=(tight,noincore,xqc) Test 
#IOP(5/87=12) Density=Current Pop=(MK,readradii) iop(6/33=2) iop(6/42=6)

holoCaM-CaMKII.loop2.water2.frame289 

   -2  1 
C         50.21027       25.93215       57.93836
C         51.31544       25.71086       56.94448
O         52.05734       26.63317       56.64175
H         49.23037       25.69394       57.47379
H         50.36262       25.25885       58.81037
H         50.19659       26.98090       58.30136
N         51.49027       24.47268       56.41527
C         52.58130       24.10827       55.51871
C         52.53354       24.84772       54.18773
O         51.51698       24.79621       53.50963
C         52.53403       22.59143       55.26891
C         53.67086       22.15073       54.40628
O         54.93626       22.41758       54.78004
O         53.45059       21.57013       53.35595
H         50.83490       23.73355       56.71719
H         53.54349       24.32670       56.03313
H         51.56793       22.31037       54.79375
H         52.61360       22.06091       56.24108
N         53.64687       25.49674       53.73026
C         53.73056       26.17511       52.44096
C         54.81015       25.59416       51.50997
O         54.86551       26.04713       50.37479
C         54.00239       27.66512       52.69077
H         54.47946       25.50453       54.32838
H         52.76004       26.08884       51.90662
H         54.97523       27.80170       53.21232
H         54.02839       28.23183       51.73588
H         53.20115       28.09665       53.32896
N         55.72184       24.64530       51.90387
C         56.81853       24.17151       51.03501
C         57.08151       22.65376       51.09196
O         57.95738       22.19382       50.37259
C         58.10028       24.95621       51.37531
C         58.56772       24.74598       52.78068
O         59.47146       25.43516       53.22552
O         57.98668       23.82939       53.57253
H         55.71717       24.35337       52.88783
H         56.58514       24.41854       49.97623
H         57.87219       26.03785       51.25072
H         58.92608       24.69964       50.67720
N         56.36822       21.81599       51.89710
C         56.52072       20.36294       51.92525
C         57.78014       19.80138       52.58430
O         57.91120       18.58560       52.58382
H         55.60781       22.21070       52.45032
H         56.44226       19.98045       50.88525
H         55.66802       19.93871       52.49913
N         58.73644       20.57688       53.17180
C         59.96329       20.03662       53.77982
C         59.75573       19.21589       55.07295
O         60.75109       18.77418       55.63133
C         60.98872       21.17850       54.00912
C         60.58349       22.20193       55.03157
N         61.37714       23.26737       55.27928
O         59.53800       22.07677       55.64069
H         58.62420       21.59363       53.12612
H         60.44631       19.37013       53.03198
H         61.15032       21.70096       53.04113
H         61.96148       20.74532       54.32763
H         62.26398       23.39511       54.77164
H         61.09975       23.97113       55.97602
N         58.52255       18.93568       55.59278
C         58.31139       18.09005       56.76711
C         58.52561       18.77002       58.11389
O         58.31977       18.10990       59.12134
H         57.68452       19.24089       55.08721
H         58.93206       17.17061       56.68448
H         57.24845       17.76470       56.76934
N         58.89936       20.07569       58.22056
C         59.04765       20.79595       59.48719
C         58.13814       22.02162       59.51520
O         57.46958       22.30715       58.53458
C         60.52907       21.22565       59.66791
C         61.43076       20.01419       59.90448
O         60.99207       21.92447       58.53977
H         59.08270       20.59933       57.36429
H         58.75440       20.15819       60.34991
H         60.64977       21.86178       60.57352
H         60.56010       22.81727       58.55070
H         61.11182       19.48045       60.82607
H         61.39275       19.31230       59.04593
H         62.48016       20.35073       60.04606
N         58.10658       22.81888       60.62378
C         57.36008       24.07072       60.70674
C         58.38226       25.18956       60.76349
O         59.27620       25.14141       61.59634
C         56.41636       24.09976       61.94641
C         55.43147       22.90196       61.91325
C         55.65046       25.44337       61.98648
C         54.49799       22.83437       63.12649
H         58.68684       22.56065       61.43534
H         56.72325       24.21263       59.80583
H         57.03419       24.01838       62.86842
H         56.01663       21.95767       61.90001
H         54.81285       22.93952       60.99175
H         56.35145       26.30167       62.02156
H         55.00400       25.55293       61.08851
H         55.02277       25.52918       62.89499
H         55.08606       22.79639       64.06773
H         53.80682       23.70102       63.15774
H         53.87200       21.91982       63.06081
N         58.29570       26.24210       59.90442
C         59.29210       27.31194       59.84154
C         58.73141       28.55466       60.46460
O         57.62300       28.51536       60.96722
C         59.64847       27.60946       58.37989
C         59.81645       26.34529       57.62747
O         58.83031       26.07165       56.77341
O         60.69987       25.54155       57.87534
H         57.48185       26.30071       59.27537
H         60.21365       27.01763       60.38819
H         60.53030       28.27358       58.26924
H         58.77456       28.13300       57.92223
N         59.45401       29.70324       60.49585
C         58.93949       30.89621       61.13714
C         57.73719       31.50850       60.40998
O         56.73075       31.69455       61.08182
C         60.05805       31.92115       61.38558
C         59.54791       33.03915       62.26435
C         59.03674       32.75946       63.54929
C         59.55984       34.36458       61.80758
C         58.52819       33.78347       64.34664
C         59.05839       35.38958       62.61599
C         58.53788       35.09843       63.88081
H         60.41287       29.70435       60.11689
H         58.60566       30.57527       62.14598
H         60.45417       32.30131       60.42221
H         60.89582       31.42073       61.91924
H         59.01770       31.74944       63.93863
H         59.95106       34.60290       60.82665
H         58.12467       33.55328       65.32465
H         59.06799       36.40999       62.25910
H         58.14233       35.89050       64.50170
N         57.71508       31.85921       59.07859
C         56.56659       32.50652       58.44830
C         55.36273       31.58260       58.30085
O         54.31533       32.05092       57.87846
C         57.11358       32.97504       57.09752
C         58.10215       31.87697       56.77051
C         58.78670       31.65390       58.12267
H         56.24898       33.39850       59.03304
H         56.34775       33.19548       56.32223
H         57.71449       33.89802       57.26457
H         57.50888       30.96768       56.51677
H         58.79587       32.08802       55.92922
H         59.19588       30.62448       58.12766
H         59.58451       32.40203       58.30828
N         55.42893       30.27281       58.65904
C         54.28771       29.37240       58.68531
C         53.66308       29.43956       60.06473
O         52.46096       29.63699       60.16740
C         54.75848       27.94770       58.33545
C         55.33200       27.91768       56.90710
C         55.86762       26.58122       56.50347
O         56.38491       26.46236       55.40536
O         55.81351       25.52100       57.33173
H         56.31945       29.89114       59.00209
H         53.52145       29.66096       57.92966
H         53.90468       27.24039       58.40754
H         55.53538       27.62453       59.06152
H         56.17170       28.63995       56.82734
H         54.53967       28.21082       56.18400
N         54.44743       29.35210       61.17433
C         53.97000       29.47051       62.53321
H         52.86784       29.57278       62.58600
H         54.28088       28.57201       63.10582
H         54.43513       30.36517       63.00189
H         55.45519       29.24063       61.05697
Ca        58.16551       24.29141       55.70185
O         54.55953       22.92317       58.18611
H         54.36654       23.76947       58.66149
H         53.82053       22.31941       58.44775
O         56.22451       20.75276       56.50310
H         55.85091       20.56233       57.39832
H         55.68709       20.19211       55.88937

Ca 1.0



