%chk=holoCaM-CaMKII.loop4.water1.frame454.chk
%nprocshared=20
%mem=10GB
%nosave
#b3lyp/svp scf=(tight,noincore,xqc) Test 
#IOP(5/87=12) Density=Current Pop=(MK,readradii) iop(6/33=2) iop(6/42=6)

holoCaM-CaMKII.loop4.water1.frame454 

   -3  1 
C         60.03912       53.78884       24.91493
C         59.36550       54.82687       24.07214
O         58.15618       54.97233       24.14563
H         60.78783       54.27471       25.57475
H         59.29998       53.24492       25.53921
H         60.55521       53.06074       24.25307
N         60.11071       55.59317       23.23507
C         59.55293       56.60317       22.34494
C         58.62357       55.95143       21.33053
O         59.04092       55.01249       20.66652
C         60.71243       57.34162       21.65515
C         60.22272       58.38954       20.71674
O         60.56600       58.35962       19.55015
O         59.40556       59.36201       21.15377
H         61.13251       55.44203       23.23430
H         58.99308       57.35672       22.94471
H         61.35601       56.62191       21.10212
H         61.33158       57.83907       22.43303
N         57.34856       56.41345       21.15584
C         56.37848       55.78357       20.26123
C         56.11963       56.71481       19.07853
O         56.40350       56.33783       17.95044
C         55.07288       55.40698       21.04562
C         55.41911       54.65185       22.35948
C         54.13194       54.57844       20.15361
C         54.21415       54.24237       23.21112
H         57.05096       57.24739       21.68275
H         56.80456       54.83732       19.85913
H         54.53601       56.33405       21.33618
H         56.01789       55.33397       22.99483
H         56.02377       53.74656       22.13743
H         53.17398       54.36896       20.67279
H         53.87787       55.13515       19.22868
H         54.60833       53.61341       19.87837
H         53.59935       53.47655       22.69671
H         54.57518       53.79346       24.16198
H         53.58724       55.12534       23.45666
N         55.60341       57.96084       19.27496
C         55.35997       58.94435       18.20926
C         56.61734       59.45324       17.47288
O         56.44655       60.21778       16.53252
C         54.56614       60.15767       18.76507
C         55.23611       60.84926       19.92344
O         56.34809       60.32606       20.46784
O         54.74928       61.86393       20.39410
H         55.33314       58.19991       20.23873
H         54.71275       58.46395       17.44271
H         53.56711       59.81863       19.11148
H         54.40589       60.89048       17.94367
N         57.88756       59.07030       17.78845
C         59.05424       59.47649       17.00793
C         59.44864       60.93566       17.16491
O         59.58445       61.61939       16.16065
H         58.04345       58.40618       18.55782
H         58.89732       59.21930       15.93680
H         59.92812       58.88313       17.33301
N         59.71436       61.45740       18.39798
C         60.27832       62.79166       18.63256
C         61.56782       62.72488       19.46012
O         62.06775       63.77114       19.85010
C         59.22190       63.73597       19.24888
C         58.66608       63.34648       20.58224
O         57.71188       63.96168       21.03015
O         59.12879       62.28629       21.25524
H         59.52914       60.86408       19.21492
H         60.54463       63.27540       17.66719
H         58.36874       63.76580       18.53575
H         59.63057       64.76581       19.33077
N         62.20223       61.53836       19.70756
C         63.47281       61.42997       20.41090
C         63.38023       61.52427       21.92266
O         64.41994       61.38582       22.55290
H         61.83804       60.67189       19.29092
H         64.19107       62.17836       20.00874
H         63.89657       60.42408       20.20048
N         62.20536       61.73707       22.58441
C         62.10040       61.78417       24.04362
C         61.07150       60.79321       24.56157
O         60.36942       60.18237       23.76544
C         61.85373       63.24470       24.50390
C         60.64842       64.00383       23.90258
C         59.29710       63.62561       24.46547
N         58.53885       64.54960       25.10296
O         58.86375       62.49535       24.32736
H         61.35037       61.88002       22.03844
H         63.06716       61.47731       24.50002
H         62.75588       63.80353       24.16958
H         61.82529       63.31367       25.61262
H         60.64515       63.91356       22.79791
H         60.81347       65.08007       24.12444
H         58.86733       65.51936       25.22024
H         57.61037       64.29855       25.47379
N         60.94868       60.56407       25.90268
C         59.95659       59.66092       26.48060
C         59.12177       60.43788       27.48678
O         59.65353       60.89017       28.49244
C         60.64305       58.43032       27.14025
C         59.61557       57.47994       27.78340
C         61.45785       57.64123       26.10375
H         61.59361       61.04806       26.54704
H         59.28585       59.26859       25.68302
H         61.33690       58.78158       27.93586
H         59.05124       57.99258       28.58572
H         58.89792       57.09913       27.02542
H         60.13037       56.61335       28.25067
H         62.24744       58.27631       25.65226
H         61.95494       56.77195       26.58561
H         60.79536       57.26664       25.29550
N         57.79474       60.63672       27.26310
C         56.90599       61.34876       28.18334
C         56.71427       60.51749       29.45812
O         57.12074       59.36493       29.47560
C         55.54275       61.52803       27.44690
C         54.49621       62.45204       28.02173
N         53.27381       62.50196       27.44279
O         54.73515       63.17575       28.97266
H         57.40604       60.27889       26.37959
H         57.35549       62.34272       28.39858
H         55.09392       60.51884       27.33245
H         55.74061       61.92591       26.42797
H         53.05309       61.90745       26.62974
H         52.54132       63.12570       27.81230
N         56.05540       61.00597       30.54702
C         55.60022       60.15166       31.64026
C         54.55876       59.18472       31.09614
O         54.59283       58.01121       31.43442
C         54.93497       60.98631       32.75546
C         54.51171       60.10517       33.91411
C         55.47113       59.50053       34.74561
C         53.15108       59.86898       34.16268
C         55.07132       58.68063       35.80760
C         52.75246       59.03927       35.21396
C         53.71255       58.44400       36.04330
O         53.34205       57.64502       37.06461
H         55.81220       62.00010       30.58374
H         56.46442       59.60980       32.08651
H         54.05273       61.50741       32.32125
H         55.62840       61.76695       33.13533
H         56.52719       59.66977       34.57744
H         52.39982       60.31394       33.53151
H         55.81820       58.22639       36.44675
H         51.69775       58.85932       35.38101
H         52.41271       57.45435       37.25780
N         53.58412       59.63578       30.24899
C         52.54534       58.77587       29.69096
C         53.10529       57.68867       28.76318
O         52.33327       56.82090       28.37942
C         51.48782       59.59813       28.90901
C         50.81734       60.74429       29.69617
C         50.10938       60.28122       30.93614
O         49.21661       59.45241       30.86681
O         50.43205       60.81172       32.12978
H         53.58066       60.63610       30.00924
H         52.03412       58.27926       30.54534
H         50.68761       58.90881       28.55934
H         51.96722       60.04178       28.01009
H         50.07168       61.23107       29.03183
H         51.56227       61.51980       29.97019
N         54.41753       57.65564       28.36916
C         54.99820       56.58365       27.55856
C         56.01649       55.76858       28.35339
O         56.44873       54.74124       27.84926
C         55.68804       57.15383       26.30034
C         54.73329       57.93682       25.39376
C         55.45439       58.44974       24.17923
O         55.06890       58.14364       23.06460
O         56.52111       59.25906       24.30952
H         55.04519       58.40826       28.66375
H         54.20228       55.87323       27.24562
H         56.12335       56.31472       25.71265
H         56.51858       57.82346       26.61889
H         54.31280       58.80187       25.94457
H         53.89608       57.27721       25.07811
N         56.45027       56.15310       29.58900
C         57.37560       55.39444       30.40185
H         58.28590       56.00287       30.58561
H         56.89532       55.17299       31.37922
H         57.66989       54.43604       29.92901
H         56.13318       57.03404       29.99358
Ca        57.46082       61.18737       22.18759
O         55.01669       61.86059       23.76397
H         54.50153       61.52394       22.98899
H         54.52816       62.66993       24.05614

Ca 1.0



