%chk=holoCaM-CaMKII.loop1.water2.frame365.chk
%nprocshared=20
%mem=10GB
%nosave
#b3lyp/svp scf=(tight,noincore,xqc) Test 
#IOP(5/87=12) Density=Current Pop=(MK,readradii) iop(6/33=2) iop(6/42=6)

holoCaM-CaMKII.loop1.water2.frame365 

   0  1 
C         52.56172       78.90376       39.93578
C         52.12097       79.20555       41.33631
O         51.44339       80.19393       41.55567
H         53.67094       78.85505       39.89596
H         52.14358       77.92399       39.62358
H         52.21297       79.68731       39.23026
N         52.50945       78.39485       42.35183
C         52.15454       78.60046       43.74834
C         53.39049       79.11712       44.45401
O         54.00978       78.41775       45.24183
C         51.53746       77.29087       44.28220
C         51.33188       77.20875       45.77253
O         50.65737       78.14271       46.47190
O         51.79332       76.25076       46.37084
H         53.13419       77.60409       42.12890
H         51.39026       79.38940       43.84892
H         52.18092       76.43292       43.98920
H         50.55396       77.15744       43.78145
N         53.81777       80.37691       44.14405
C         55.07001       80.96245       44.61447
C         55.07380       81.28486       46.10544
O         56.13528       81.62469       46.60979
C         55.39159       82.27244       43.85034
C         55.39462       82.11717       42.31702
C         55.74544       83.44622       41.63367
C         55.50017       83.42033       40.11464
N         56.31204       82.41936       39.42305
H         53.23796       80.91328       43.48464
H         55.87746       80.22920       44.39522
H         56.39261       82.63624       44.17284
H         54.63525       83.04304       44.12211
H         54.38689       81.82311       41.96460
H         56.11853       81.32943       42.01937
H         56.80140       83.71407       41.85617
H         55.09045       84.24571       42.04484
H         55.73842       84.42745       39.70676
H         54.42224       83.22190       39.91874
H         56.05217       81.45564       39.73175
H         56.12640       82.49011       38.39635
H         57.32748       82.59444       39.59832
N         53.94114       81.24457       46.86638
C         53.91984       81.56480       48.29473
C         53.59177       80.33899       49.14393
O         53.63237       80.44494       50.36191
C         53.00234       82.77731       48.55842
C         51.62888       82.61782       47.97949
O         50.84783       81.59886       48.36711
O         51.22409       83.40506       47.13842
H         53.04843       80.98113       46.42482
H         54.93098       81.86916       48.64188
H         53.47013       83.67345       48.09322
H         52.92867       82.96790       49.65111
N         53.36719       79.12077       48.57687
C         53.31842       77.87784       49.32088
C         52.16143       77.75394       50.27399
O         52.38497       77.44970       51.43665
H         53.32659       79.02933       47.55558
H         54.28033       77.73310       49.85890
H         53.22240       77.04381       48.59142
N         50.88774       77.87476       49.81833
C         49.71452       77.49183       50.59403
C         49.01331       76.28708       49.96225
O         48.07959       75.78217       50.57140
C         48.76795       78.69203       50.81613
C         48.43780       79.48040       49.58037
O         48.65038       80.80811       49.56387
O         47.95484       78.94311       48.60322
H         50.74849       78.17929       48.84825
H         50.01602       77.13626       51.60314
H         49.24994       79.39321       51.53030
H         47.82775       78.33002       51.28463
N         49.41157       75.74993       48.76963
C         48.84024       74.54992       48.18855
C         47.87547       74.84784       47.06703
O         47.39915       73.89791       46.46581
H         50.15816       76.19142       48.22541
H         48.28101       73.95971       48.94601
H         49.67213       73.90787       47.82351
N         47.46607       76.12351       46.78695
C         46.40340       76.41355       45.83002
C         46.85434       77.42689       44.78769
O         47.90117       78.03598       44.93903
C         45.14384       76.90291       46.59172
C         44.67430       75.87212       47.64133
O         45.36777       78.15629       47.19067
H         47.84684       76.90708       47.32505
H         46.12779       75.48553       45.28581
H         44.31240       77.02955       45.86663
H         45.78822       78.01176       48.07654
H         45.45447       75.70940       48.41837
H         43.76090       76.23950       48.15416
H         44.45206       74.89812       47.15916
N         46.10246       77.60736       43.66095
C         46.45279       78.52813       42.58074
C         45.25495       79.43191       42.31343
O         44.16236       78.92358       42.11544
C         46.86505       77.74039       41.30150
C         48.04953       76.78581       41.62143
C         47.26031       78.72938       40.18025
C         48.46889       75.89549       40.45004
H         45.26253       77.02357       43.53880
H         47.33345       79.14072       42.85759
H         45.99889       77.13210       40.95986
H         47.75551       76.10031       42.44402
H         48.93023       77.37485       41.95936
H         46.42557       79.41877       39.94084
H         48.14070       79.33543       40.48827
H         47.50493       78.20082       39.23843
H         48.86471       76.49007       39.60291
H         49.27924       75.21210       40.78170
H         47.60820       75.28376       40.10641
N         45.40650       80.78646       42.25227
C         44.30436       81.71779       42.01513
C         44.44947       82.37413       40.65300
O         45.40461       82.10438       39.94932
C         44.26489       82.79141       43.13781
C         43.99480       82.17860       44.51756
O         45.44139       83.56727       43.14362
H         46.34955       81.17771       42.34077
H         43.33200       81.17992       42.00457
H         43.41978       83.48653       42.95256
H         46.14751       83.07033       43.63251
H         44.79586       81.46378       44.79087
H         43.95384       82.98315       45.28288
H         43.02234       81.64296       44.51333
N         43.50536       83.25681       40.22024
C         43.58295       83.98255       38.95132
C         44.83314       84.84313       38.89345
O         45.50735       84.84629       37.87217
C         42.33542       84.88052       38.75353
C         41.05594       84.04608       38.60738
O         42.20669       85.77512       39.82989
H         42.70234       83.43548       40.83786
H         43.60881       83.26416       38.10077
H         42.47905       85.45095       37.80516
H         41.58936       86.49474       39.53661
H         40.84912       83.44982       39.51947
H         40.18988       84.71679       38.42699
H         41.14864       83.35607       37.74183
N         45.21542       85.57185       39.97852
C         46.40099       86.42574       40.02147
C         47.63066       85.64250       39.61431
O         48.35932       86.06428       38.72769
C         46.62623       86.97920       41.45437
C         45.47425       87.87410       41.94766
C         45.65857       88.36863       43.39194
C         46.86174       89.30605       43.57224
N         46.90354       89.83711       44.93489
H         44.64946       85.46836       40.83206
H         46.27551       87.28284       39.32342
H         47.56562       87.57209       41.45056
H         46.75408       86.13295       42.16615
H         44.52442       87.30404       41.93944
H         45.35660       88.74242       41.26520
H         45.75017       87.49908       44.08065
H         44.73863       88.92882       43.66672
H         46.77618       90.15350       42.85691
H         47.80883       88.76256       43.36707
H         46.99938       89.05703       45.62495
H         47.72439       90.47777       45.02867
H         46.03113       90.37883       45.13537
N         47.90711       84.47560       40.24436
C         49.08975       83.66714       39.99206
C         49.13546       83.19177       38.54820
O         50.12381       83.45443       37.87635
C         49.12939       82.50785       41.00485
C         49.27615       83.07385       42.43998
C         49.30658       82.01791       43.49257
O         50.32921       81.95622       44.35595
O         48.37443       81.24692       43.62420
H         47.22998       84.15645       40.95270
H         50.00237       84.27842       40.17568
H         49.99777       81.87069       40.77022
H         48.20778       81.89106       40.91574
H         48.43021       83.74107       42.69400
H         50.21159       83.67070       42.50475
N         48.09253       82.52523       37.98635
C         48.09297       82.11349       36.59872
H         48.23043       82.99836       35.94000
H         48.90960       81.38417       36.41654
H         47.12196       81.63699       36.34379
H         47.25846       82.33073       38.54675
Ca        50.26725       80.22809       45.77144
O         46.31293       81.16086       47.16330
H         46.23721       80.51732       46.41486
H         45.38556       81.46634       47.32784
O         48.23922       83.31699       46.50524
H         48.52665       83.77677       47.33370
H         47.66160       83.97502       46.04330

Ca 1.0



