%chk=holoCaM.loop1.water2.frame395.chk
%nprocshared=20
%mem=10GB
%nosave
#b3lyp/svp scf=(tight,noincore,xqc) Test 
#IOP(5/87=12) Density=Current Pop=(MK,readradii) iop(6/33=2) iop(6/42=6)

holoCaM.loop1.water2.frame395 

   0  1 
C         90.97558       76.08454       99.67737
C         92.00116       76.62146      100.62083
O         92.18175       76.07648      101.70185
H         90.14804       76.82416       99.62447
H         91.41559       75.96269       98.66621
H         90.56869       75.11474      100.02980
N         92.71607       77.71876      100.26044
C         93.59434       78.41672      101.17064
C         92.74560       79.28316      102.09696
O         91.99082       80.13699      101.65853
C         94.60383       79.27474      100.40824
C         95.32740       80.16988      101.34724
O         95.14697       81.36513      101.24897
O         96.00986       79.68782      102.39371
H         92.57894       78.11121       99.31774
H         94.21287       77.67699      101.73855
H         94.06016       79.91916       99.68959
H         95.32968       78.63815       99.85909
N         92.86634       79.07706      103.41767
C         92.20729       79.74731      104.51093
C         92.84246       81.11267      104.78371
O         92.12304       82.05365      105.08239
C         92.37356       78.79827      105.74016
C         91.54185       79.17367      106.96267
C         91.66792       78.12001      108.08830
C         93.03357       78.07568      108.80149
N         93.33223       79.34821      109.46002
H         93.47902       78.32836      103.67084
H         91.11731       79.81601      104.30923
H         93.44756       78.70028      106.01057
H         92.01522       77.78766      105.42729
H         90.47906       79.19646      106.64060
H         91.80869       80.18426      107.32732
H         91.44347       77.10939      107.67827
H         90.90034       78.34078      108.85892
H         93.85601       77.80238      108.10361
H         92.98692       77.27850      109.57706
H         92.52641       79.66006      110.04696
H         94.17664       79.23835      110.06726
H         93.51509       80.08365      108.74786
N         94.20351       81.24479      104.81060
C         94.89715       82.30939      105.55068
C         95.24802       83.57285      104.77125
O         95.71619       84.52399      105.38300
C         96.25900       81.74620      106.02344
C         96.12106       80.41765      106.72847
O         96.47854       79.23434      106.17634
O         95.61205       80.39881      107.82743
H         94.74333       80.40458      104.55807
H         94.27206       82.57547      106.43123
H         96.75701       82.47093      106.70798
H         96.90079       81.62951      105.12710
N         95.16869       83.62263      103.42357
C         95.78530       84.67165      102.62867
C         97.27946       84.44893      102.44026
O         98.01735       85.42148      102.38060
H         94.75437       82.83079      102.93062
H         95.54715       85.69054      103.00503
H         95.35914       84.60525      101.60433
N         97.77143       83.19273      102.22564
C         99.12454       82.90329      101.74488
C         99.08683       82.19596      100.37205
O        100.14164       81.97701       99.79432
C         99.91781       82.07367      102.78087
C         99.20706       80.84555      103.24459
O         98.78669       80.03790      102.44244
O         99.04556       80.62360      104.56099
H         97.13556       82.39506      102.35802
H         99.68923       83.84721      101.59194
H        100.12263       82.68785      103.68256
H        100.89265       81.77517      102.33884
N         97.90922       81.82470       99.78940
C         97.74753       81.15795       98.50669
C         98.39061       79.78789       98.44231
O         98.85692       79.41700       97.37548
H         97.03987       82.04109      100.26339
H         98.12281       81.80992       97.69073
H         96.65655       81.01246       98.33502
N         98.38636       78.95790       99.52435
C         99.00795       77.62561       99.56811
C         98.34545       76.74467      100.64063
O         97.47965       77.20940      101.36874
C        100.56991       77.70196       99.74589
C        101.30866       78.25857       98.53428
O        100.96781       78.43571      100.87123
H         97.89871       79.29991      100.35886
H         98.77359       77.09630       98.61792
H        100.95159       76.66906       99.88487
H        100.33668       79.17695      101.00159
H        102.40141       78.25072       98.73222
H        101.10306       77.62733       97.64431
H        101.02829       79.31054       98.34457
N         98.64486       75.41242      100.70853
C         97.90035       74.44011      101.51289
C         98.80575       73.72137      102.50050
O         99.86232       73.23120      102.13062
C         97.20537       73.42717      100.54316
C         96.15903       74.14294       99.64774
C         96.56581       72.21820      101.24801
C         94.89402       74.61874      100.37972
H         99.36699       75.03800      100.07515
H         97.10873       74.93872      102.10535
H         97.99855       73.01656       99.88033
H         95.83146       73.46263       98.83205
H         96.64684       75.01479       99.16818
H         95.78069       72.53139      101.96024
H         96.11256       71.53612      100.49925
H         97.33484       71.63476      101.78980
H         95.11357       75.17734      101.30963
H         94.32714       75.29498       99.70962
H         94.23918       73.75659      100.63118
N         98.34276       73.50831      103.76398
C         98.98582       72.70596      104.78516
C         98.23617       71.39823      104.91461
O         97.27226       71.16627      104.20172
C         99.02298       73.46011      106.14516
C         99.82547       74.76018      106.03144
O         97.72302       73.66012      106.65476
H         97.40914       73.83202      103.98802
H        100.02292       72.45540      104.48377
H         99.55609       72.85466      106.90508
H         97.41445       74.56708      106.42477
H         99.85869       75.27340      107.01410
H        100.86362       74.52730      105.71340
H         99.36522       75.43416      105.28366
N         98.65761       70.47547      105.80870
C         98.03358       69.16976      105.98074
C         96.58446       69.34312      106.39897
O         95.72318       68.61388      105.92635
C         98.81271       68.33212      107.03822
C         98.28439       66.89735      107.09930
O        100.17312       68.22804      106.68990
H         99.46040       70.73401      106.39088
H         98.08549       68.61654      105.01696
H         98.70886       68.79200      108.05190
H        100.61997       69.09367      106.86186
H         98.88211       66.31107      107.82944
H         97.21764       66.85213      107.39744
H         98.40421       66.42583      106.09910
N         96.26483       70.29964      107.31260
C         94.93961       70.46380      107.89134
C         94.01470       71.32398      107.01698
O         92.82596       71.39131      107.29701
C         95.16045       71.00835      109.31002
C         94.00576       70.80492      110.27134
C         94.39667       71.08927      111.73606
C         94.96787       72.49066      112.05489
N         96.40113       72.64090      111.74939
H         97.03275       70.87686      107.68856
H         94.49494       69.44746      107.98578
H         95.42842       72.07873      109.22654
H         96.01431       70.44334      109.74828
H         93.69392       69.73530      110.23447
H         93.14700       71.43232      109.96134
H         95.10782       70.31926      112.11516
H         93.45693       70.96436      112.31406
H         94.86021       72.61385      113.15384
H         94.36826       73.28811      111.56449
H         96.57175       72.93893      110.76670
H         96.79425       73.39593      112.35761
H         96.93218       71.76356      111.95658
N         94.49345       71.95242      105.90157
C         93.66227       72.56886      104.87009
C         93.45297       71.58932      103.71914
O         92.56419       71.82846      102.91341
C         94.39569       73.79064      104.27430
C         94.52501       74.98166      105.22353
C         95.47206       76.01639      104.67052
O         96.79782       75.85820      104.64941
O         95.04274       77.05862      104.26715
H         95.49396       71.87652      105.69566
H         92.66135       72.84333      105.27219
H         93.89128       74.14793      103.34780
H         95.38859       73.43129      103.97893
H         94.87691       74.69243      106.23288
H         93.50581       75.42035      105.31812
N         94.24083       70.48544      103.55716
C         94.14289       69.58462      102.43007
H         93.49010       69.98571      101.62800
H         95.15555       69.43209      101.99657
H         93.75504       68.60634      102.77855
H         94.97328       70.26615      104.23756
Ca        97.11902       78.77156      104.08113
O        100.03821       77.16705      103.45081
H        100.51642       77.30517      104.30331
H        100.76442       77.21832      102.78910
O         99.06860       77.98226      106.32771
H         99.71679       77.63284      106.98505
H         98.66785       78.75103      106.79710

Ca 1.0



