%chk=holoCaM.loop1.water2.frame386.chk
%nprocshared=20
%mem=10GB
%nosave
#b3lyp/svp scf=(tight,noincore,xqc) Test 
#IOP(5/87=12) Density=Current Pop=(MK,readradii) iop(6/33=2) iop(6/42=6)

holoCaM.loop1.water2.frame386 

   0  1 
C        116.69168       77.22481      100.42928
C        117.14146       78.34151      101.31571
O        118.06576       79.05408      100.94948
H        115.63052       77.38678      100.14641
H        117.30661       77.19081       99.50434
H        116.79071       76.25986      100.96667
N        116.50782       78.57176      102.50059
C        116.87135       79.68199      103.36870
C        118.30194       79.48007      103.86887
O        118.56057       78.56350      104.63548
C        115.79579       79.85862      104.46670
C        115.89439       81.15322      105.21093
O        114.95907       81.53355      105.89364
O        117.02844       81.86227      105.18786
H        115.71286       77.96578      102.75791
H        116.81752       80.60040      102.74080
H        115.75855       79.00031      105.17149
H        114.82025       79.90180      103.93641
N        119.29890       80.24042      103.33238
C        120.73300       79.99985      103.51027
C        121.24222       80.25941      104.92457
O        122.29089       79.73253      105.26847
C        121.48826       80.86874      102.47578
C        122.99566       80.61949      102.36076
C        123.56428       81.47879      101.21600
C        125.07897       81.32595      101.01575
N        125.45561       79.96791      100.61979
H        119.01554       80.94480      102.63759
H        120.91419       78.93023      103.26191
H        121.31039       81.94374      102.70146
H        121.04442       80.64643      101.47880
H        123.15845       79.54291      102.14679
H        123.50395       80.88810      103.31081
H        123.35793       82.54914      101.43884
H        123.04978       81.22219      100.26316
H        125.61631       81.61339      101.94573
H        125.38654       82.02951      100.20974
H        124.93538       79.68504       99.75743
H        126.48059       79.94800      100.41528
H        125.26489       79.29090      101.39163
N        120.58690       81.09505      105.77606
C        121.03238       81.38622      107.14483
C        119.97637       80.99190      108.18522
O        120.25860       81.11953      109.36889
C        121.51387       82.86541      107.28684
C        120.49863       83.91769      106.93158
O        119.31559       83.52042      106.46348
O        120.76170       85.10493      107.02772
H        119.73731       81.54514      105.42032
H        121.92399       80.76900      107.39037
H        122.39232       83.01292      106.62212
H        121.84691       83.03224      108.33410
N        118.77227       80.44637      107.83281
C        117.81333       79.91287      108.78752
C        117.25777       80.94491      109.73589
O        117.39645       80.75969      110.93702
H        118.53096       80.32451      106.84165
H        118.29786       79.09372      109.36510
H        116.95842       79.46870      108.23281
N        116.59029       82.04214      109.27371
C        115.98015       83.02903      110.16807
C        114.47194       83.18438      109.94758
O        113.85577       83.91391      110.71296
C        116.74838       84.36678      110.07407
C        116.65376       85.08201      108.75861
O        115.92455       84.67537      107.87605
O        117.36649       86.20609      108.56020
H        116.53034       82.18173      108.25419
H        116.09517       82.69401      111.22140
H        117.82064       84.15128      110.27359
H        116.38501       85.06380      110.85805
N        113.80547       82.53553      108.94412
C        112.36381       82.59450      108.74896
C        111.95527       83.27126      107.45288
O        110.77736       83.22336      107.13522
H        114.32334       81.94188      108.28543
H        111.85149       83.13262      109.57614
H        111.98315       81.55032      108.74907
N        112.84116       83.99393      106.70263
C        112.44989       84.76982      105.52567
C        113.42518       84.57741      104.36671
O        114.45635       83.94617      104.51820
C        112.34820       86.27430      105.89917
C        111.19340       86.56065      106.86946
O        113.56035       86.75760      106.42109
H        113.80381       84.08813      107.03257
H        111.45229       84.43779      105.16392
H        112.11877       86.86180      104.98506
H        113.66290       86.41046      107.34611
H        110.22987       86.24530      106.41578
H        111.33253       86.02555      107.83176
H        111.14389       87.65078      107.07673
N        113.11223       85.11222      103.15021
C        113.93758       85.02256      101.94869
C        114.21962       86.43965      101.45290
O        113.29236       87.22042      101.30405
C        113.19273       84.15158      100.89152
C        113.04056       82.67468      101.36482
C        113.85679       84.19567       99.50368
C        114.35704       81.89339      101.52451
H        112.20690       85.59447      103.05496
H        114.90937       84.53618      102.15301
H        112.17002       84.57012      100.76175
H        112.41691       82.12756      100.62511
H        112.49965       82.64812      102.33455
H        113.28287       83.57112       98.78586
H        113.86829       85.23072       99.10510
H        114.89663       83.82534       99.54177
H        115.01445       82.34031      102.29624
H        114.12959       80.85453      101.83967
H        114.91358       81.82822      100.56748
N        115.49521       86.81213      101.13548
C        115.87831       88.14339      100.66489
C        116.17549       88.10018       99.17510
O        116.01523       87.06134       98.56413
C        117.11298       88.66124      101.45819
C        116.85003       88.74790      102.96369
O        118.25851       87.88667      101.18637
H        116.23102       86.10122      101.17812
H        115.04197       88.86173      100.80574
H        117.34194       89.69830      101.13862
H        118.23074       87.06989      101.74739
H        115.98059       89.40640      103.16984
H        116.64786       87.73765      103.36279
H        117.74269       89.16183      103.47932
N        116.60731       89.21194       98.51758
C        116.91672       89.22925       97.08726
C        117.98667       88.19775       96.74434
O        117.75843       87.38541       95.85796
C        117.34427       90.64800       96.63236
C        116.19236       91.65475       96.78696
O        118.46108       91.08074       97.36619
H        116.72835       90.07683       99.06003
H        115.99977       88.96941       96.51081
H        117.60502       90.58887       95.54982
H        118.83079       91.87011       96.89128
H        115.31202       91.32262       96.19656
H        115.88461       91.77006       97.84661
H        116.50762       92.65056       96.41160
N        119.15555       88.14119       97.44166
C        120.20864       87.15327       97.20155
C        119.67005       85.73369       97.25439
O        119.88867       84.98312       96.31363
C        121.33850       87.34839       98.24730
C        122.41993       86.24750       98.21008
C        123.56655       86.50359       99.20700
C        124.49429       87.67644       98.83312
N        125.23174       87.41964       97.59284
H        119.28518       88.81588       98.21170
H        120.64878       87.31308       96.19134
H        120.90331       87.34893       99.27211
H        121.78799       88.34586       98.06285
H        122.81667       86.10936       97.18508
H        121.93962       85.29049       98.50986
H        124.19245       85.58745       99.27690
H        123.13079       86.68488      100.21443
H        125.23079       87.80407       99.65704
H        123.92696       88.62687       98.74885
H        124.58530       87.36463       96.77506
H        125.90098       88.20448       97.42403
H        125.77604       86.52981       97.67630
N        118.99244       85.29192       98.34448
C        118.57199       83.90276       98.51956
C        117.63858       83.47456       97.39444
O        117.96721       82.53727       96.67993
C        117.94061       83.70951       99.91950
C        118.95991       84.03504      101.03848
C        118.37550       83.95797      102.41850
O        117.42288       84.65081      102.72875
O        118.96173       83.19643      103.35508
H        118.79868       85.98034       99.08498
H        119.47333       83.24983       98.48110
H        117.59807       82.65787      100.03752
H        117.06242       84.37599      100.00727
H        119.34709       85.06494      100.93134
H        119.82587       83.34268      100.96069
N        116.47943       84.13938       97.14919
C        115.60175       83.80693       96.04757
H        114.73707       84.50557       96.02967
H        116.14753       83.90504       95.08420
H        115.22156       82.77048       96.15845
H        116.21911       84.92312       97.75031
Ca       117.29560       84.01739      105.72942
O        119.23063       86.82798      104.90596
H        119.16999       86.99999      105.87928
H        119.57249       87.67619      104.52721
O        116.34854       86.81971      105.80057
H        116.44337       87.80143      105.88381
H        115.67011       86.68771      105.09199

Ca 1.0



