%chk=holoCaM-CaMKII.loop1.water2.frame298.chk
%nprocshared=20
%mem=10GB
%nosave
#b3lyp/svp scf=(tight,noincore,xqc) Test 
#IOP(5/87=12) Density=Current Pop=(MK,readradii) iop(6/33=2) iop(6/42=6)

holoCaM-CaMKII.loop1.water2.frame298 

   0  1 
C         58.71943       13.64611       75.35583
C         60.05701       12.98793       75.52910
O         60.28122       12.35155       76.54300
H         58.06644       13.45984       76.23414
H         58.85761       14.74164       75.23620
H         58.22233       13.24367       74.44725
N         60.98207       13.08991       74.53844
C         62.32398       12.50027       74.54595
C         63.23372       13.20281       75.57041
O         64.01197       14.06483       75.18400
C         62.86639       12.62311       73.10007
C         64.20793       12.00114       72.91022
O         64.38713       10.68674       73.12385
O         65.13429       12.68407       72.51576
H         60.68326       13.60493       73.69350
H         62.26571       11.41162       74.76687
H         62.91020       13.69604       72.80604
H         62.16623       12.10894       72.40550
N         63.15180       12.91973       76.90653
C         63.85002       13.70462       77.92963
C         65.36727       13.50172       77.97833
O         66.01418       14.26921       78.67799
C         63.30479       13.40103       79.34801
C         61.78693       13.56708       79.55098
C         61.26401       14.97092       79.21960
C         59.78375       15.09473       79.61119
N         59.25640       16.41681       79.27763
H         62.50585       12.18203       77.20960
H         63.65148       14.77714       77.71116
H         63.81415       14.07454       80.07292
H         63.56422       12.35310       79.61724
H         61.58322       13.35062       80.62273
H         61.22767       12.81940       78.95312
H         61.37398       15.16121       78.12997
H         61.84918       15.73079       79.78165
H         59.68286       14.92815       80.70748
H         59.18565       14.31896       79.08280
H         59.81364       17.16093       79.75683
H         59.28583       16.56196       78.24238
H         58.26339       16.47848       79.59994
N         66.00254       12.48268       77.33054
C         67.45402       12.25098       77.41381
C         68.13725       12.40516       76.05761
O         69.35107       12.26260       76.00073
C         67.75957       10.88068       78.06702
C         66.97600        9.78837       77.42338
O         67.01751        9.61536       76.09412
O         66.15815        9.16561       78.08299
H         65.43760       11.83008       76.76731
H         67.94101       13.00976       78.06369
H         67.46694       10.92436       79.14044
H         68.84719       10.65837       78.02580
N         67.44973       12.78156       74.94371
C         68.09600       13.12992       73.69150
C         68.71762       11.96590       72.95712
O         69.88764       12.04786       72.61283
H         66.43387       12.93424       74.99389
H         68.84562       13.93034       73.87435
H         67.33619       13.56380       73.01314
N         67.96636       10.88352       72.60956
C         68.42262        9.83747       71.69630
C         67.51597        9.74521       70.45844
O         67.71064        8.84019       69.65864
C         68.58677        8.48421       72.42520
C         67.38223        7.98494       73.16512
O         67.49557        7.62926       74.45662
O         66.31820        7.83511       72.59841
H         67.00072       10.82233       72.96344
H         69.43727       10.06705       71.30230
H         69.41860        8.57564       73.15741
H         68.89056        7.71767       71.67977
N         66.55953       10.68669       70.18931
C         65.73284       10.69031       68.98796
C         64.63221        9.64426       68.96171
O         63.89219        9.62721       67.98797
H         66.46186       11.49940       70.80826
H         66.38290       10.59523       68.09109
H         65.21859       11.67439       68.92346
N         64.43916        8.75987       69.97963
C         63.36443        7.77154       70.01306
C         62.51673        7.95076       71.26094
O         63.04498        8.26045       72.32057
C         63.91861        6.32925       69.93371
C         64.47724        6.00508       68.53953
O         64.87701        6.08524       70.93125
H         65.07564        8.78553       70.78195
H         62.68589        7.88671       69.13864
H         63.07626        5.61961       70.09065
H         65.74862        6.43865       70.61229
H         63.67837        6.12040       67.77588
H         65.32200        6.67688       68.27992
H         64.83111        4.95247       68.51630
N         61.17903        7.69806       71.20283
C         60.26345        7.81987       72.33088
C         59.79012        6.42180       72.70067
O         59.38491        5.67084       71.82288
C         59.06442        8.74348       71.96118
C         59.55577       10.12282       71.44650
C         58.13566        8.92314       73.18361
C         58.42845       10.98861       70.87577
H         60.78092        7.37422       70.30708
H         60.77595        8.27695       73.20749
H         58.49662        8.25151       71.14045
H         60.27473        9.97169       70.61386
H         60.07947       10.67338       72.25844
H         58.67713        9.43289       74.01057
H         57.23576        9.51744       72.93307
H         57.76915        7.94564       73.55343
H         57.92061       10.45088       70.04594
H         57.68102       11.26011       71.64682
H         58.85325       11.93172       70.47278
N         59.78562        6.02319       74.00063
C         59.39526        4.69514       74.45860
C         58.01091        4.74072       75.07529
O         57.39492        5.79385       75.10709
C         60.42881        4.18170       75.50295
C         61.83623        4.08458       74.92380
O         60.44741        5.04516       76.61148
H         60.02910        6.71550       74.71585
H         59.34639        3.98256       73.60592
H         60.13302        3.16038       75.83182
H         60.76464        4.52110       77.39284
H         61.85249        3.38629       74.06196
H         62.18018        5.08559       74.59986
H         62.53370        3.70716       75.70287
N         57.45841        3.61667       75.60027
C         56.18256        3.59680       76.30807
C         56.24338        4.53944       77.50387
O         55.37760        5.38918       77.65131
C         55.88314        2.14568       76.77085
C         54.57053        2.02791       77.55113
O         55.81540        1.31445       75.63922
H         57.99100        2.73609       75.52640
H         55.36444        3.91722       75.62349
H         56.71667        1.81306       77.43588
H         56.10105        0.40726       75.92457
H         53.71479        2.35366       76.92360
H         54.41330        0.97012       77.85234
H         54.60392        2.64236       78.47515
N         57.26188        4.42289       78.39718
C         57.38518        5.20761       79.62381
C         57.46610        6.69937       79.33753
O         56.68475        7.45058       79.90473
C         58.61728        4.73560       80.43263
C         58.46584        3.26079       80.86432
C         59.65895        2.77129       81.69220
C         59.56182        1.27150       82.03640
N         58.39293        0.95279       82.85972
H         57.98476        3.72088       78.18559
H         56.49211        5.02760       80.26359
H         58.70781        5.36054       81.34839
H         59.54278        4.86342       79.82806
H         58.38298        2.60117       79.97711
H         57.53399        3.16733       81.45975
H         59.74071        3.36870       82.62568
H         60.58819        2.91837       81.09910
H         60.48141        0.98349       82.59158
H         59.52965        0.67124       81.09936
H         57.50791        1.11257       82.32830
H         58.42888       -0.05909       83.12067
H         58.39749        1.52772       83.73294
N         58.37152        7.19429       78.44997
C         58.50367        8.61598       78.12150
C         57.17742        9.18713       77.65550
O         56.69906       10.14168       78.25285
C         59.57725        8.81397       77.02791
C         60.97710        8.46158       77.54916
C         62.02623        8.52838       76.48256
O         63.01432        9.42235       76.59251
O         62.03769        7.73168       75.56073
H         58.97335        6.51439       77.96771
H         58.81990        9.18121       79.02783
H         59.59353        9.87439       76.69819
H         59.31122        8.19315       76.15276
H         61.01380        7.43987       77.97703
H         61.23254        9.18066       78.35826
N         56.51317        8.63423       76.60908
C         55.23069        9.12073       76.15533
H         54.49168        9.06738       76.98333
H         55.32538       10.16894       75.80331
H         54.86626        8.49035       75.31618
H         56.92276        7.82720       76.13198
Ca        64.92652        9.21518       75.44833
O         64.83960        6.30994       76.92627
H         64.51467        7.02990       77.52231
H         64.48803        5.47681       77.32908
O         64.68877        5.80249       74.01193
H         64.71611        4.90727       74.43343
H         64.01466        5.71619       73.29288

Ca 1.0



