%chk=holoCaM-CaMKII.loop1.water2.frame391.chk
%nprocshared=20
%mem=10GB
%nosave
#b3lyp/svp scf=(tight,noincore,xqc) Test 
#IOP(5/87=12) Density=Current Pop=(MK,readradii) iop(6/33=2) iop(6/42=6)

holoCaM-CaMKII.loop1.water2.frame391 

   0  1 
C         46.00614       80.34460      -11.63033
C         45.12889       79.14815      -11.85309
O         43.99350       79.18432      -11.42020
H         47.01414       80.20225      -12.07242
H         45.53803       81.23905      -12.09244
H         46.12016       80.51676      -10.53928
N         45.58698       78.06922      -12.54844
C         44.83162       76.84202      -12.82620
C         44.69512       75.97160      -11.57032
O         45.33135       74.93078      -11.48963
C         45.55707       76.10275      -13.98003
C         44.96518       74.78694      -14.42594
O         43.71888       74.68420      -14.93503
O         45.68481       73.80390      -14.43723
H         46.53621       78.14852      -12.94613
H         43.83156       77.09878      -13.21776
H         46.61321       75.92066      -13.67803
H         45.57342       76.77640      -14.86532
N         43.87925       76.33793      -10.53978
C         43.73193       75.57162       -9.30947
C         42.97181       74.25459       -9.48964
O         42.90375       73.52248       -8.51178
C         43.06919       76.44192       -8.20943
C         43.96474       77.64132       -7.82714
C         43.38451       78.43286       -6.64491
C         44.33726       79.52737       -6.12460
N         44.57180       80.59119       -7.10240
H         43.35713       77.21098      -10.60219
H         44.74876       75.31539       -8.93799
H         42.93779       75.82127       -7.29657
H         42.06534       76.79254       -8.53951
H         44.09916       78.31265       -8.69997
H         44.96031       77.24940       -7.52478
H         43.21626       77.72597       -5.80339
H         42.40618       78.88067       -6.92434
H         45.30801       79.07098       -5.82684
H         43.88316       79.97657       -5.21360
H         45.17619       81.32343       -6.66317
H         45.06836       80.22255       -7.94384
H         43.66442       81.02931       -7.38164
N         42.40662       73.85680      -10.67485
C         41.77710       72.54031      -10.84636
C         42.55130       71.64354      -11.81561
O         42.13803       70.50831      -12.00872
C         40.28231       72.65696      -11.22402
C         39.96968       73.27013      -12.56051
O         40.84571       73.70345      -13.28959
O         38.68714       73.31916      -12.96464
H         42.45064       74.48182      -11.49145
H         41.78474       71.98997       -9.88062
H         39.75318       73.23783      -10.43790
H         39.85048       71.63149      -11.22682
N         43.71996       72.04331      -12.39794
C         44.56871       71.15596      -13.18125
C         44.05737       70.81084      -14.56888
O         44.73980       70.05531      -15.24629
H         44.09180       72.97641      -12.19535
H         44.74874       70.22801      -12.59828
H         45.55820       71.63906      -13.31459
N         42.89555       71.31261      -15.07840
C         42.38267       70.95603      -16.40620
C         43.21362       71.49569      -17.58560
O         42.84367       71.23041      -18.72070
C         40.89256       71.35658      -16.51869
C         40.59373       72.82665      -16.42582
O         39.30988       73.22872      -16.43058
O         41.48321       73.65535      -16.32961
H         42.32245       71.92205      -14.48068
H         42.38344       69.84583      -16.48168
H         40.34715       70.85224      -15.69072
H         40.47622       70.97552      -17.47571
N         44.35833       72.21516      -17.40514
C         45.21367       72.69341      -18.48392
C         44.60120       73.82897      -19.26938
O         44.70966       73.82747      -20.48260
H         44.68845       72.41308      -16.45431
H         45.53469       71.85718      -19.14486
H         46.13160       73.11346      -18.01993
N         44.03007       74.87353      -18.60975
C         43.48244       76.10818      -19.20254
C         43.12002       77.11320      -18.09686
O         43.22562       76.79198      -16.92798
C         42.22042       75.86147      -20.10248
C         42.53477       75.59515      -21.57896
O         41.41867       74.82125      -19.60664
H         44.02144       74.77436      -17.58535
H         44.27741       76.61905      -19.78803
H         41.61659       76.79479      -20.15011
H         41.32589       74.95946      -18.63149
H         43.14905       76.42502      -21.99115
H         43.03913       74.63777      -21.76386
H         41.58622       75.55402      -22.15515
N         42.76340       78.39336      -18.39979
C         42.47981       79.42345      -17.39458
C         41.14799       80.09531      -17.71284
O         40.93374       80.48008      -18.85478
C         43.66064       80.43885      -17.35112
C         44.94886       79.70222      -16.87754
C         43.33962       81.61758      -16.40612
C         46.21652       80.55474      -16.91132
H         42.76663       78.67813      -19.39187
H         42.41455       78.99054      -16.36955
H         43.81908       80.84441      -18.37471
H         45.14700       78.83325      -17.53810
H         44.80233       79.31811      -15.84226
H         44.15783       82.36383      -16.40057
H         42.43514       82.16180      -16.74638
H         43.17011       81.25693      -15.36851
H         46.15225       81.41901      -16.22176
H         47.07911       79.93432      -16.58611
H         46.40684       80.91163      -17.94502
N         40.23489       80.33141      -16.72331
C         38.93789       80.97617      -16.94488
C         38.89867       82.36963      -16.34290
O         39.84701       82.78532      -15.69802
C         37.80662       80.11640      -16.31982
C         37.69670       78.75986      -17.00223
O         38.05586       79.93742      -14.94767
H         40.48413       80.07242      -15.75684
H         38.74875       81.10570      -18.03291
H         36.83172       80.63722      -16.45224
H         37.22068       79.59122      -14.53820
H         37.47531       78.89101      -18.08180
H         38.64701       78.20640      -16.87759
H         36.86950       78.17639      -16.54365
N         37.79791       83.15229      -16.53134
C         37.61114       84.46692      -15.91703
C         37.58233       84.34808      -14.40129
O         38.03285       85.25549      -13.71664
C         36.28470       85.11660      -16.39422
C         36.30888       85.42930      -17.89623
O         35.20289       84.26690      -16.10102
H         37.04126       82.77657      -17.12232
H         38.44632       85.14185      -16.21000
H         36.16260       86.08353      -15.85028
H         34.38469       84.82878      -16.08789
H         37.13749       86.13257      -18.12488
H         36.44006       84.51061      -18.50404
H         35.35267       85.90896      -18.19526
N         37.01208       83.25992      -13.81790
C         36.89745       83.06015      -12.37896
C         38.26696       82.94067      -11.74691
O         38.57434       83.67073      -10.81529
C         36.03648       81.80254      -12.14317
C         35.70284       81.53139      -10.67366
C         34.55412       80.51546      -10.59876
C         34.11903       80.24435       -9.15705
N         32.91106       79.41875       -9.13363
H         36.62503       82.53137      -14.43776
H         36.34955       83.91980      -11.93385
H         36.50159       80.89617      -12.59057
H         35.08128       81.99579      -12.68009
H         35.35429       82.47424      -10.19996
H         36.60593       81.16880      -10.13425
H         34.84292       79.56003      -11.09031
H         33.68463       80.94438      -11.14551
H         33.90019       81.20849       -8.64677
H         34.94160       79.73215       -8.61096
H         32.12713       79.92490       -9.60854
H         33.08120       78.50724       -9.61689
H         32.63648       79.23777       -8.14170
N         39.14810       82.03540      -12.23961
C         40.49188       81.82230      -11.72045
C         41.30365       83.10535      -11.75807
O         41.77903       83.52051      -10.70968
C         41.14338       80.65901      -12.49705
C         40.41258       79.35311      -12.11242
C         40.95968       78.13741      -12.77319
O         41.51181       77.28927      -12.09724
O         40.73725       77.87502      -14.06806
H         38.83890       81.47358      -13.04554
H         40.43549       81.51346      -10.65126
H         42.20558       80.57451      -12.20319
H         41.11029       80.84911      -13.59215
H         39.32696       79.39245      -12.33402
H         40.53237       79.22368      -11.01398
N         41.45787       83.81554      -12.90692
C         42.13833       85.09489      -12.96829
H         42.97209       85.04169      -13.69720
H         41.41732       85.87260      -13.29973
H         42.54798       85.40844      -11.98441
H         41.04094       83.45892      -13.77193
Ca        42.06275       76.19879      -14.71751
O         39.08060       75.84177      -17.61652
H         39.09108       75.07166      -18.23550
H         38.12255       75.95160      -17.39734
O         38.41089       76.12979      -14.59824
H         37.94289       75.43631      -14.07256
H         37.76407       76.87700      -14.63673

Ca 1.0



