%chk=holoCaM.loop2.water1.frame42.chk
%nprocshared=20
%mem=10GB
%nosave
#b3lyp/svp scf=(tight,noincore,xqc) Test 
#IOP(5/87=12) Density=Current Pop=(MK,readradii) iop(6/33=2) iop(6/42=6)

holoCaM.loop2.water1.frame42 

   -2  1 
C         -1.13226       14.06073       15.28991
C         -2.24750       14.81593       14.64031
O         -2.22679       14.97939       13.42890
H         -0.19676       14.64931       15.21030
H         -1.35067       13.87005       16.36237
H         -1.00754       13.08196       14.78153
N         -3.26324       15.31308       15.39503
C         -4.41836       15.98619       14.82375
C         -3.98514       17.20290       14.00272
O         -3.46172       18.15359       14.56841
C         -5.36094       16.37821       15.96773
C         -6.70156       16.81995       15.52628
O         -7.19220       16.50363       14.32253
O         -7.41160       17.36228       16.33535
H         -3.22290       15.17361       16.41759
H         -4.92383       15.24556       14.17485
H         -4.88461       17.17965       16.57457
H         -5.54379       15.51209       16.64250
N         -4.09433       17.18405       12.64031
C         -3.44434       18.16581       11.77096
C         -4.29445       19.39751       11.48505
O         -3.74397       20.38830       11.02414
C         -3.06521       17.49499       10.44796
H         -4.45667       16.32355       12.21193
H         -2.49491       18.48105       12.26179
H         -3.98542       17.20577        9.89436
H         -2.45643       18.17520        9.81722
H         -2.47452       16.57495       10.64950
N         -5.63969       19.39816       11.70569
C         -6.50743       20.56911       11.53669
C         -7.10589       20.99886       12.87656
O         -7.77021       22.02499       12.91536
C         -7.59153       20.31257       10.45496
C         -8.48585       19.13695       10.71998
O         -9.28676       18.77396        9.87366
O         -8.44074       18.50111       11.89621
H         -6.06351       18.52228       12.03486
H         -5.90997       21.43679       11.17790
H         -7.07794       20.14649        9.48424
H         -8.24553       21.20621       10.34563
N         -6.86206       20.30078       14.02685
C         -7.27924       20.73223       15.34861
C         -8.77648       20.70940       15.54876
O         -9.34225       21.73086       15.91008
H         -6.29464       19.44392       14.00208
H         -6.85847       21.74113       15.55103
H         -6.84335       20.03306       16.09358
N         -9.47585       19.55643       15.35060
C        -10.91852       19.41188       15.56216
C        -11.28216       18.21616       16.46927
O        -12.45924       17.92548       16.62511
C        -11.59995       19.32582       14.18721
C        -11.21656       18.15056       13.32670
N        -11.70977       18.07503       12.07227
O        -10.46280       17.28052       13.73448
H         -8.95672       18.74851       14.98292
H        -11.33234       20.32804       16.04012
H        -11.32750       20.24951       13.62947
H        -12.70225       19.32088       14.32063
H        -12.33927       18.80578       11.71353
H        -11.45245       17.30316       11.44794
N        -10.32210       17.52493       17.14451
C        -10.53819       16.43400       18.08653
C        -10.81078       15.04635       17.51370
O        -10.92136       14.13965       18.32693
H         -9.37951       17.89592       17.10855
H        -11.31946       16.72538       18.81830
H         -9.58951       16.30610       18.65652
N        -10.89562       14.76614       16.17873
C        -11.06708       13.39987       15.65991
C         -9.92283       13.00985       14.72729
O         -9.70030       13.66938       13.72471
C        -12.42508       13.21762       14.93571
C        -13.58374       13.07462       15.92923
O        -12.65649       14.29048       14.06187
H        -10.81972       15.53653       15.50229
H        -11.05852       12.65582       16.48484
H        -12.38076       12.26140       14.36335
H        -13.61632       14.30751       13.81097
H        -14.50599       12.80397       15.36901
H        -13.37843       12.25248       16.64730
H        -13.75072       14.02390       16.47539
N         -9.17147       11.90145       14.99841
C         -8.12084       11.39229       14.11731
C         -8.71761       10.83499       12.83171
O         -9.41445        9.83004       12.87135
C         -7.27284       10.31059       14.86308
C         -6.45881       11.01504       15.98061
C         -6.32745        9.51851       13.93090
C         -5.69746       10.05992       16.89413
H         -9.35945       11.39118       15.87426
H         -7.43446       12.22102       13.86729
H         -7.97908        9.56991       15.30061
H         -7.13790       11.61075       16.62604
H         -5.73340       11.71960       15.51365
H         -5.54647       10.17055       13.48981
H         -5.84096        8.68785       14.48028
H         -6.89166        9.01851       13.12165
H         -6.41024        9.38142       17.40698
H         -4.94934        9.46542       16.33380
H         -5.14764       10.65143       17.65542
N         -8.43100       11.43197       11.64131
C         -8.77310       10.87248       10.33860
C         -7.77350        9.79301        9.95492
O         -6.85132        9.51565       10.69764
C         -8.65795       11.96759        9.25594
C         -9.57222       13.11036        9.49085
O        -10.77975       12.95832        9.40289
O         -9.05412       14.32458        9.74632
H         -7.89835       12.30931       11.65535
H         -9.81343       10.47280       10.34956
H         -8.90063       11.58381        8.24293
H         -7.61356       12.34421        9.25330
N         -7.89608        9.18024        8.75247
C         -6.97390        8.20461        8.17889
C         -5.55856        8.76765        7.89740
O         -4.62183        8.13228        8.36080
C         -7.67521        7.62155        6.93663
C         -6.88764        6.63711        6.13524
C         -6.44122        5.43556        6.70203
C         -6.64181        6.90303        4.77876
C         -5.76670        4.50289        5.91037
C         -5.97015        5.97019        3.99249
C         -5.53647        4.76775        4.55580
H         -8.73566        9.41995        8.20495
H         -6.85671        7.35698        8.89238
H         -8.01628        8.43316        6.27366
H         -8.60347        7.11644        7.28297
H         -6.62981        5.21560        7.74570
H         -6.98479        7.82654        4.32569
H         -5.43340        3.57053        6.34479
H         -5.79810        6.17912        2.94506
H         -5.02622        4.04067        3.94044
N         -5.28026        9.90138        7.16502
C         -3.92654       10.43431        6.95206
C         -3.20014       10.68043        8.26730
O         -2.03639       10.33607        8.41193
C         -4.15761       11.79007        6.25757
C         -5.48298       11.59330        5.56612
C         -6.27181       10.76840        6.57127
H         -3.35631        9.74927        6.28596
H         -4.32692       12.59076        7.01134
H         -3.32743       12.11144        5.58903
H         -5.99188       12.52927        5.24758
H         -5.30123       10.95472        4.67459
H         -6.70780       11.38987        7.37368
H         -7.05321       10.24762        6.00308
N         -3.88660       11.26719        9.28309
C         -3.36910       11.52679       10.62278
C         -2.98229       10.21842       11.28976
O         -1.94358       10.15278       11.93036
C         -4.44593       12.25355       11.44978
C         -4.84010       13.59403       10.79032
C         -5.94832       14.26445       11.51223
O         -6.28445       13.89659       12.62447
O         -6.66309       15.21790       10.90005
H         -4.87385       11.48869        9.09484
H         -2.48746       12.20391       10.57995
H         -4.07241       12.44371       12.48109
H         -5.35167       11.60999       11.52073
H         -5.22665       13.43010        9.76861
H         -3.97365       14.28470       10.71670
N         -3.75752        9.11448       11.10891
C         -3.45224        7.79277       11.60717
H         -2.52601        7.77381       12.21438
H         -4.30316        7.42575       12.21813
H         -3.32332        7.10709       10.74100
H         -4.59605        9.19996       10.53419
Ca        -8.09338       16.01586       12.36122
O        -10.82541       15.01402       11.51982
H        -11.49904       14.72761       10.85901
H        -11.30261       14.94876       12.37186

Ca 1.0



