%chk=holoCaM-CaMKII.loop2.water2.frame29.chk
%nprocshared=20
%mem=10GB
%nosave
#b3lyp/svp scf=(tight,noincore,xqc) Test 
#IOP(5/87=12) Density=Current Pop=(MK,readradii) iop(6/33=2) iop(6/42=6)

holoCaM-CaMKII.loop2.water2.frame29 

   -2  1 
C         47.28508       71.92420       38.38813
C         48.31694       70.83487       38.44421
O         48.15836       69.89115       39.20388
H         46.45279       71.72358       39.09555
H         47.74934       72.90034       38.63838
H         46.86532       71.97815       37.35980
N         49.39638       70.89107       37.62001
C         50.38366       69.82406       37.51774
C         51.21225       69.64795       38.78360
O         51.90397       70.57575       39.17974
C         51.32936       70.10741       36.33543
C         52.29583       68.98025       36.15467
O         53.49798       69.18141       36.21071
O         51.82830       67.73391       35.96409
H         49.47015       71.69927       36.98138
H         49.83969       68.88106       37.28528
H         51.87816       71.06154       36.50011
H         50.73767       70.20614       35.40192
N         51.23664       68.44087       39.42140
C         52.11966       68.11901       40.53298
C         52.93130       66.86170       40.20322
O         52.87516       65.89793       40.95484
C         51.27677       67.94235       41.80368
H         50.61846       67.69527       39.08676
H         52.83285       68.95001       40.72074
H         51.93055       67.71418       42.67266
H         50.72413       68.88103       42.02196
H         50.53993       67.11941       41.67745
N         53.71087       66.80760       39.07940
C         54.52580       65.64568       38.69514
C         55.36504       65.92757       37.44000
O         56.57923       65.81220       37.53318
C         53.70965       64.33059       38.58398
C         52.37703       64.44839       37.91686
O         51.36639       64.16866       38.54368
O         52.25914       64.82779       36.64140
H         53.72931       67.63915       38.47120
H         55.26404       65.44786       39.50510
H         53.50733       63.95849       39.61131
H         54.31937       63.54367       38.08990
N         54.81357       66.32586       36.25524
C         55.58594       66.66222       35.06156
C         55.18137       65.88988       33.81006
O         55.74606       66.17139       32.76268
H         53.80600       66.46855       36.20632
H         56.67367       66.50585       35.22677
H         55.43109       67.74162       34.85335
N         54.24858       64.89388       33.82795
C         53.90413       64.08031       32.65444
C         53.08760       64.80946       31.56443
O         52.77724       64.17007       30.56840
C         53.17165       62.79196       33.11332
C         51.82419       63.04082       33.72985
N         51.08148       62.01564       34.20101
O         51.39513       64.17552       33.80568
H         53.84048       64.63285       34.73378
H         54.85478       63.72596       32.19770
H         53.80837       62.27012       33.86133
H         53.03599       62.11137       32.24605
H         51.42798       61.04737       34.15482
H         50.15564       62.19455       34.61449
N         52.71843       66.12391       31.65498
C         52.00789       66.83580       30.58952
C         50.50097       66.58402       30.49686
O         49.88566       67.16479       29.61442
H         53.03574       66.67933       32.45963
H         52.49694       66.61446       29.61429
H         52.12140       67.92687       30.76436
N         49.83555       65.76023       31.35629
C         48.39831       65.47543       31.30459
C         47.70988       65.71162       32.64755
O         48.21911       65.27468       33.66781
C         48.17508       63.99365       30.91790
C         48.53917       63.73676       29.45710
O         48.93151       63.13513       31.73562
H         50.37820       65.27274       32.06822
H         47.88156       66.09022       30.53377
H         47.08891       63.74730       31.00268
H         48.42349       63.00194       32.57686
H         47.91052       64.37106       28.79446
H         49.60907       63.95966       29.26685
H         48.33990       62.67326       29.20699
N         46.46050       66.26715       32.68935
C         45.61779       66.28789       33.89180
C         45.34435       64.85630       34.35300
O         44.98031       64.01539       33.54167
C         44.27538       67.05386       33.63220
C         44.57649       68.55861       33.38405
C         43.29912       66.89553       34.82317
C         43.34719       69.40036       33.03183
H         46.05535       66.61165       31.80567
H         46.13702       66.83282       34.70797
H         43.78110       66.61692       32.73593
H         45.29089       68.66165       32.54160
H         45.05038       68.99667       34.28979
H         43.74056       67.30420       35.75684
H         42.33096       67.39661       34.62914
H         43.04071       65.82972       34.98313
H         42.61487       69.43065       33.86342
H         43.66454       70.44754       32.84211
H         42.85735       69.00438       32.11810
N         45.43215       64.54807       35.67883
C         45.18788       63.22955       36.25986
C         43.91635       63.25729       37.07762
O         43.25203       64.28214       37.10462
C         46.34153       62.84850       37.20944
C         47.68004       63.03552       36.59992
O         48.48165       62.11741       36.54280
O         48.03377       64.27474       36.23400
H         45.66010       65.30780       36.33042
H         45.08950       62.46142       35.46141
H         46.23218       61.80214       37.56435
H         46.31996       63.52028       38.09739
N         43.50422       62.16928       37.77976
C         42.29700       62.17280       38.58986
C         42.36492       63.15859       39.77058
O         41.47699       63.99179       39.84564
C         41.94503       60.74859       39.06361
C         40.52813       60.69350       39.58117
C         40.25497       60.35961       40.91640
C         39.45707       60.97792       38.71104
C         38.93210       60.32183       41.37267
C         38.14138       60.94108       39.17070
C         37.87769       60.61435       40.50134
H         44.04918       61.29469       37.70542
H         41.47699       62.49272       37.91117
H         42.67748       60.40409       39.82125
H         42.00392       60.04500       38.20452
H         41.06143       60.13431       41.60273
H         39.63741       61.22776       37.67272
H         38.72284       60.06700       42.40270
H         37.32836       61.16588       38.49204
H         36.85560       60.58655       40.85453
N         43.36154       63.15742       40.72343
C         43.40756       64.09766       41.84698
C         43.47393       65.54423       41.38584
O         42.78156       66.37927       41.95353
C         44.65154       63.65882       42.64125
C         45.53745       63.02566       41.59161
C         44.51562       62.27593       40.74023
H         42.53005       63.99767       42.52333
H         45.12450       64.44460       43.27090
H         44.34767       62.82360       43.31166
H         45.99728       63.83269       40.98804
H         46.36560       62.39675       41.98268
H         44.97243       62.08715       39.75321
H         44.22800       61.32423       41.23749
N         44.25728       65.90676       40.34211
C         44.38597       67.27137       39.84033
C         43.03970       67.78610       39.35514
O         42.66989       68.90354       39.68462
C         45.41948       67.30318       38.69751
C         46.81090       66.82381       39.17972
C         47.81785       66.69345       38.07991
O         49.01436       66.14857       38.35605
O         47.55584       67.01452       36.93420
H         44.75739       65.15654       39.85037
H         44.77119       67.94228       40.64066
H         45.51113       68.33439       38.29023
H         45.04973       66.64405       37.89173
H         46.74667       65.81641       39.62911
H         47.20197       67.51162       39.95896
N         42.23415       66.99203       38.59991
C         40.93552       67.40399       38.11791
H         40.28584       67.69765       38.96913
H         41.04605       68.25244       37.41199
H         40.45023       66.55768       37.58307
H         42.53943       66.03995       38.38912
Ca        50.15450       64.73587       35.98814
O         50.71864       67.61361       33.51747
H         51.41787       68.29099       33.33699
H         49.89987       67.98956       33.11123
O         48.26975       68.98423       34.92382
H         48.38886       69.96554       34.89512
H         47.32638       68.86446       35.19253

Ca 1.0



