%chk=holoCaM.loop1.water2.frame345.chk
%nprocshared=20
%mem=10GB
%nosave
#b3lyp/svp scf=(tight,noincore,xqc) Test 
#IOP(5/87=12) Density=Current Pop=(MK,readradii) iop(6/33=2) iop(6/42=6)

holoCaM.loop1.water2.frame345 

   0  1 
C         15.94501       16.42895      106.79594
C         15.31000       15.86876      108.03211
O         15.49866       16.41800      109.10824
H         16.63054       15.67256      106.36034
H         15.15880       16.67976      106.05226
H         16.52212       17.34839      107.02998
N         14.50884       14.77372      107.94069
C         13.84050       14.18991      109.09420
C         14.85357       13.52400      110.02147
O         15.46641       12.53603      109.64178
C         12.76046       13.20906      108.60999
C         12.07657       12.51545      109.73882
O         11.49623       13.21141      110.72823
O         12.05663       11.30200      109.76455
H         14.33739       14.37526      107.00353
H         13.30676       15.00520      109.63512
H         13.21001       12.44451      107.93767
H         12.00141       13.77827      108.02966
N         15.09497       14.05532      111.25284
C         16.08469       13.53016      112.19199
C         15.64191       12.24822      112.90111
O         16.46555       11.70218      113.62307
C         16.38404       14.57775      113.30060
C         17.00193       15.88279      112.77403
C         17.23174       16.87473      113.92694
C         17.89030       18.16736      113.42687
N         18.06618       19.12505      114.51906
H         14.61102       14.92904      111.48439
H         17.02985       13.33546      111.63846
H         17.10162       14.14775      114.03409
H         15.44410       14.81076      113.84372
H         16.33210       16.35624      112.02555
H         17.97199       15.64870      112.28473
H         17.88613       16.41160      114.69723
H         16.25622       17.11820      114.40173
H         17.25933       18.62875      112.63750
H         18.88250       17.92622      112.98498
H         18.53470       19.98371      114.14923
H         17.13578       19.39327      114.91537
H         18.66385       18.71139      115.27106
N         14.36397       11.75985      112.84397
C         13.90138       10.67050      113.71418
C         13.28944        9.50025      112.95224
O         12.80683        8.57796      113.59731
C         12.82299       11.21538      114.68043
C         13.25708       12.42294      115.46460
O         13.49919       13.47378      114.89397
O         13.32205       12.36969      116.80783
H         13.66332       12.23636      112.25802
H         14.73539       10.27237      114.33195
H         12.54526       10.41008      115.39619
H         11.91752       11.49205      114.10726
N         13.22171        9.47366      111.59334
C         12.49294        8.45101      110.85449
C         10.97401        8.51698      111.03056
O         10.30177        7.69906      110.41850
H         13.70683       10.19980      111.05148
H         12.86869        7.44532      111.14337
H         12.69372        8.58791      109.76979
N         10.35155        9.43861      111.83151
C          8.89890        9.48099      112.02208
C          8.14312       10.00879      110.78809
O          6.92004       10.00773      110.80229
C          8.55660       10.35792      113.26264
C          8.83063       11.81422      113.00814
O          8.24383       12.36264      112.09949
O          9.71221       12.54421      113.70965
H         10.91943       10.10680      112.36478
H          8.56035        8.44766      112.25698
H          9.13327       10.00245      114.14356
H          7.47462       10.25753      113.49742
N          8.80753       10.55837      109.73123
C          8.17831       11.19787      108.58810
C          7.44951       12.48921      108.93228
O          6.30402       12.61616      108.53669
H          9.82932       10.54228      109.72252
H          7.50367       10.47894      108.07339
H          8.97833       11.47662      107.86713
N          8.09094       13.52049      109.56847
C          7.52824       14.87026      109.78173
C          8.58846       15.92756      110.27910
O          9.87028       15.41341      110.50515
C          6.30902       14.99871      110.75078
C          4.94922       14.48750      110.24384
O          6.61095       14.50307      112.02895
H          9.07265       13.34708      109.81781
H          7.17643       15.21699      108.78415
H          6.12078       16.09054      110.86443
H          6.21450       13.59737      112.11545
H          4.71575       14.93987      109.25613
H          4.89822       13.38618      110.19048
H          4.15864       14.79916      110.95991
N          8.66074       17.02043      109.30612
C          9.61758       18.10790      109.57405
C          8.99847       19.16200      110.50001
O          7.91161       19.65141      110.22765
C         10.07084       18.65746      108.18963
C         10.83717       17.52561      107.43473
C         10.96183       19.89833      108.33206
C         11.23884       17.86804      106.00100
H          7.71252       17.40558      109.08522
H         10.54294       17.71993      110.05265
H          9.16587       18.95196      107.61362
H         10.20075       16.61731      107.37318
H         11.75599       17.25312      108.00316
H         10.43416       20.70490      108.88044
H         11.89563       19.63433      108.86322
H         11.22083       20.31379      107.33852
H         11.94631       18.71981      105.96372
H         11.75185       16.99096      105.55032
H         10.33668       18.09984      105.39789
N          9.69262       19.58854      111.59458
C          9.25049       20.60095      112.55002
C         10.05318       21.87441      112.32270
O         10.79123       21.93614      111.35338
C          9.45467       20.07479      114.00059
C          8.65584       18.78906      114.27370
O         10.82834       19.91346      114.28202
H         10.63743       19.22353      111.73540
H          8.17602       20.84806      112.40606
H          9.06634       20.82215      114.72242
H         11.06612       18.95249      114.23987
H          7.57194       18.96961      114.12057
H          8.98622       17.96954      113.60116
H          8.81774       18.46787      115.32570
N          9.97004       22.93960      113.16767
C         10.78213       24.14308      112.98773
C         12.27300       23.80072      113.03440
O         12.97521       24.08338      112.07361
C         10.42995       25.23224      114.03829
C          8.98662       25.72684      113.88273
O         10.61455       24.74643      115.34324
H          9.32612       22.88571      113.96917
H         10.56040       24.57932      111.98667
H         11.10995       26.09810      113.85565
H         10.74637       25.53482      115.93194
H          8.78733       26.53340      114.61974
H          8.82822       26.13689      112.86324
H          8.25674       24.91016      114.05998
N         12.81761       23.18938      114.12601
C         14.24418       22.87985      114.27513
C         14.79205       21.83146      113.30392
O         15.98606       21.57147      113.36805
C         14.56807       22.49548      115.73953
C         13.84417       21.24591      116.27477
C         14.22755       21.01670      117.74635
C         13.46886       19.85492      118.40852
N         12.03843       20.13826      118.56064
H         12.18660       22.99366      114.91104
H         14.81210       23.81769      114.08441
H         14.28725       23.36135      116.37903
H         15.66699       22.35130      115.84078
H         14.11235       20.35096      115.67224
H         12.75328       21.39814      116.20802
H         14.03794       21.93871      118.33972
H         15.31715       20.79874      117.78893
H         13.90186       19.70342      119.42233
H         13.61616       18.91852      117.82761
H         11.59040       19.35116      119.08251
H         11.90246       21.01920      119.10905
H         11.56620       20.22094      117.63352
N         14.02412       21.23150      112.35151
C         14.55460       20.30383      111.35720
C         14.64619       21.03910      110.03098
O         15.73563       21.12587      109.48193
C         13.68988       19.02361      111.29696
C         13.65213       18.32439      112.66943
C         12.80304       17.08062      112.69918
O         11.49734       17.12623      112.39177
O         13.27922       16.02621      113.07709
H         13.03160       21.47425      112.27921
H         15.58719       19.98581      111.61781
H         14.10223       18.32812      110.53417
H         12.66579       19.29658      110.99167
H         13.24643       19.02484      113.42443
H         14.68773       18.06536      112.96497
N         13.55879       21.66265      109.49864
C         13.59846       22.48879      108.30879
H         13.28347       23.52063      108.57741
H         14.61198       22.54243      107.86121
H         12.89316       22.09189      107.55179
H         12.65844       21.58888      109.97902
Ca         9.88794       14.51068      112.60938
O         11.05419       15.60490      115.69206
H         11.26696       16.53811      115.94580
H         10.60031       15.22841      116.48773
O          7.81019       15.66760      114.42719
H          6.95586       15.19856      114.59790
H          8.27712       15.65894      115.29932

Ca 1.0



