%chk=holoCaM.loop3.water2.frame179.chk
%nprocshared=20
%mem=10GB
%nosave
#b3lyp/svp scf=(tight,noincore,xqc) Test 
#IOP(5/87=12) Density=Current Pop=(MK,readradii) iop(6/33=2) iop(6/42=6)

holoCaM.loop3.water2.frame179 

   0  1 
C         40.71613       73.70254       83.12006
C         39.73314       74.45091       82.26996
O         40.07970       75.49239       81.73823
H         41.68761       74.23985       83.17012
H         40.31499       73.60026       84.15102
H         40.88467       72.69308       82.69141
N         38.46299       73.98089       82.13235
C         37.41088       74.63932       81.36412
C         36.41158       75.21203       82.35000
O         35.23899       74.86530       82.34344
C         36.83673       73.62407       80.34868
C         35.58022       74.05881       79.63306
O         35.52325       75.13789       78.82821
O         34.56614       73.39576       79.78101
H         38.20956       73.12172       82.64511
H         37.79724       75.50762       80.79878
H         36.59269       72.69031       80.90156
H         37.62152       73.37832       79.60031
N         36.85349       76.13676       83.24616
C         35.99735       76.80234       84.21628
C         34.94679       77.64197       83.52349
O         33.80079       77.59405       83.94971
C         36.83693       77.64379       85.20445
C         37.78555       76.77998       86.07998
C         37.08593       75.68230       86.91582
C         36.06095       76.24301       87.91680
N         35.37241       75.16311       88.62294
H         37.85431       76.38638       83.22715
H         35.44981       76.04770       84.81379
H         36.15717       78.21115       85.87296
H         37.43774       78.39452       84.64532
H         38.34280       77.45208       86.76756
H         38.53515       76.28085       85.42951
H         37.85996       75.11774       87.47949
H         36.59560       74.94840       86.24479
H         35.29351       76.84932       87.39261
H         36.58654       76.89552       88.64875
H         34.82138       74.59115       87.94130
H         36.05892       74.55347       89.12251
H         34.71160       75.57766       89.31947
N         35.23707       78.38519       82.41500
C         34.20634       79.11946       81.68421
C         33.06710       78.17880       81.28666
O         31.94208       78.45039       81.68387
C         34.80711       79.96351       80.53225
C         35.59267       79.22002       79.49453
O         35.03828       78.44964       78.73685
O         36.90908       79.46324       79.34432
H         36.20750       78.39663       82.06454
H         33.77031       79.87776       82.37402
H         35.49825       80.69909       80.99800
H         34.00004       80.53785       80.02751
N         33.28961       77.00932       80.61458
C         32.25476       75.99795       80.41345
C         31.93388       75.69677       78.96420
O         31.08454       74.84476       78.74148
H         34.24520       76.77709       80.31622
H         31.29902       76.30025       80.89412
H         32.58602       75.06141       80.90989
N         32.50293       76.37426       77.92640
C         32.05555       76.20096       76.54570
C         32.36413       74.82876       75.95180
O         31.83472       74.53573       74.88926
C         32.58710       77.34430       75.65066
C         34.05908       77.25522       75.32101
N         34.47284       77.31823       74.03356
O         34.88459       77.15394       76.21410
H         33.17789       77.11477       78.13559
H         30.94942       76.32397       76.57077
H         32.39463       78.30804       76.17110
H         32.00706       77.36338       74.70360
H         33.79685       77.42843       73.26373
H         35.47562       77.28791       73.80214
N         33.22447       73.95258       76.55085
C         33.51109       72.62272       76.02973
C         34.92391       72.47551       75.49372
O         35.24894       71.38050       75.05599
H         33.71005       74.23073       77.41035
H         32.82579       72.36452       75.19479
H         33.33441       71.88361       76.84142
N         35.80207       73.52029       75.44238
C         37.12741       73.43284       74.83185
C         38.23330       73.78780       75.79820
O         38.05022       74.62837       76.66285
C         37.22587       74.42675       73.65258
C         36.64790       73.90421       72.36579
C         35.55966       74.52647       71.73435
C         37.26469       72.80399       71.74698
C         35.10192       74.05391       70.49807
C         36.81171       72.33861       70.51363
C         35.73042       72.96497       69.88097
O         35.29700       72.53587       68.67886
H         35.51486       74.43906       75.81002
H         37.34481       72.40583       74.46720
H         38.29224       74.63694       73.41207
H         36.77643       75.39397       73.95898
H         35.07419       75.38015       72.18547
H         38.11721       72.32190       72.20994
H         34.26788       74.54343       70.01137
H         37.31247       71.50002       70.04666
H         35.72405       71.80231       68.21284
N         39.47676       73.27418       75.57814
C         40.68075       73.69666       76.27685
C         41.64310       74.26085       75.24748
O         42.04033       73.54680       74.33536
C         41.31253       72.50673       77.05582
C         40.36488       72.09868       78.21370
C         42.71480       72.87738       77.59365
C         40.82924       70.86954       78.99553
H         39.59279       72.57583       74.82597
H         40.45199       74.49479       77.01812
H         41.43694       71.64974       76.35599
H         39.36151       71.86248       77.79965
H         40.25380       72.95047       78.92190
H         43.19293       72.01829       78.10291
H         43.40171       73.14274       76.76260
H         42.65767       73.73696       78.29354
H         40.92353       69.99662       78.31616
H         41.79620       71.04924       79.50647
H         40.08112       70.63340       79.78109
N         42.09396       75.53743       75.37633
C         43.10119       76.14363       74.51874
C         44.36082       76.41361       75.33712
O         44.41191       76.03859       76.50153
C         42.51357       77.39852       73.85082
O         42.12559       78.33967       74.81310
H         41.74128       76.10487       76.15897
H         43.39754       75.45064       73.70033
H         41.62906       77.08097       73.25009
H         43.25387       77.85545       73.15993
H         41.56758       79.00638       74.33309
N         45.44236       77.01648       74.77261
C         46.73258       77.16470       75.44319
C         46.65810       77.90230       76.76681
O         47.17165       77.37941       77.74575
C         47.72636       77.88432       74.52686
H         45.36386       77.33917       73.79621
H         47.14614       76.14896       75.63761
H         47.37403       78.91151       74.29275
H         48.71999       77.94870       75.02119
H         47.84608       77.31898       73.57868
N         46.07817       79.13105       76.87133
C         46.10510       79.90830       78.10827
C         45.49013       79.15504       79.27159
O         46.18038       78.93031       80.25695
C         45.39273       81.25401       77.91811
H         45.63389       79.53679       76.03327
H         47.16729       80.12816       78.35844
H         45.88474       81.83200       77.10786
H         44.32501       81.10895       77.64815
H         45.44517       81.85061       78.85451
N         44.19069       78.75317       79.24077
C         43.54726       78.10288       80.38101
C         44.13062       76.73524       80.71881
O         43.80576       76.20962       81.77500
C         42.03547       77.99610       80.13696
C         41.68237       77.01249       79.01013
C         40.23451       77.14390       78.68522
O         39.87671       77.42731       77.55404
O         39.32429       77.00890       79.66015
H         43.63433       78.98312       78.40362
H         43.69435       78.77378       81.25690
H         41.66405       79.01323       79.87960
H         41.52106       77.67571       81.06977
H         41.90017       75.97165       79.33524
H         42.27353       77.22182       78.09654
N         44.96402       76.08046       79.86386
C         45.52898       74.78578       80.17063
H         46.17148       74.86020       81.07328
H         44.71930       74.04603       80.34538
H         46.15185       74.43655       79.31918
H         45.19428       76.49496       78.95417
Ca        37.11236       76.60291       78.25011
O         38.35183       77.44318       74.91302
H         39.32147       77.24591       74.89333
H         38.19744       78.00534       74.11283
O         36.33066       79.74873       76.19193
H         35.75841       80.54154       76.03900
H         36.33009       79.27539       75.32307

Ca 1.0



