%chk=holoCaM-CaMKII.loop3.water1.frame241.chk
%nprocshared=20
%mem=10GB
%nosave
#b3lyp/svp scf=(tight,noincore,xqc) Test 
#IOP(5/87=12) Density=Current Pop=(MK,readradii) iop(6/33=2) iop(6/42=6)

holoCaM-CaMKII.loop3.water1.frame241 

   0  1 
C         82.88314       11.69179       34.65586
C         82.91267       10.25661       34.23054
O         83.86941        9.55612       34.53133
H         82.82997       12.34168       33.75848
H         81.98714       11.86978       35.28877
H         83.79007       11.94907       35.24215
N         81.85828        9.73902       33.54718
C         81.77720        8.33584       33.18264
C         82.56915        8.07925       31.89764
O         82.32085        8.74380       30.90129
C         80.29858        7.92972       33.03536
C         80.16083        6.43941       33.04180
O         80.89870        5.72248       32.19385
O         79.42533        5.87759       33.83493
H         81.04610       10.35017       33.36564
H         82.16784        7.73300       34.03228
H         79.88218        8.35976       32.10049
H         79.70432        8.32442       33.88701
N         83.52916        7.11339       31.85550
C         84.37432        6.82213       30.69162
C         83.56777        6.46370       29.44378
O         83.75912        7.10907       28.42261
C         85.35831        5.69071       31.06684
C         86.40540        5.36278       29.98926
C         87.41812        4.34189       30.54409
C         88.53392        3.96548       29.55539
N         88.03215        3.20034       28.41328
H         83.68014        6.56530       32.71576
H         84.98346        7.72728       30.46847
H         84.78683        4.76891       31.30767
H         85.90278        6.01855       31.98080
H         86.95280        6.28973       29.71024
H         85.89220        4.96243       29.09042
H         86.89540        3.41716       30.87204
H         87.90579        4.79559       31.43547
H         89.27414        3.33629       30.09904
H         89.06003        4.88056       29.20397
H         88.84074        2.92456       27.81015
H         87.55545        2.33119       28.74785
H         87.37279        3.77224       27.84078
N         82.64889        5.45612       29.45522
C         81.86853        5.03983       28.28403
C         80.40220        5.46590       28.38209
O         79.62615        5.09412       27.51227
C         82.07530        3.52469       28.01529
C         81.77651        2.65847       29.20525
O         82.68552        2.07057       29.76956
O         80.54891        2.62864       29.74129
H         82.47858        4.97308       30.34722
H         82.23169        5.55259       27.36578
H         83.14689        3.38299       27.75306
H         81.46996        3.19285       27.14479
N         79.98636        6.37105       29.31658
C         78.67666        7.00308       29.29935
C         77.50584        6.14373       29.71961
O         76.40619        6.68165       29.70430
H         80.66552        6.75559       29.98325
H         78.48924        7.41366       28.28155
H         78.69343        7.86669       29.99821
N         77.61079        4.83455       30.10313
C         76.41236        4.06722       30.44881
C         75.79074        4.49632       31.78340
O         74.72528        3.99427       32.11150
C         76.64974        2.53939       30.36402
C         77.27355        1.90145       31.57890
N         76.64173        0.88768       32.21806
O         78.35541        2.28105       31.98232
H         78.52653        4.36678       30.07637
H         75.67991        4.26538       29.63388
H         77.26293        2.32051       29.46197
H         75.66351        2.05357       30.20555
H         75.72999        0.53792       31.88945
H         77.07048        0.43261       33.03577
N         76.40436        5.39612       32.61392
C         75.82972        5.85657       33.87133
C         76.37486        5.13133       35.08953
O         75.97800        5.48868       36.18968
H         77.31918        5.79023       32.35801
H         74.72369        5.75416       33.85876
H         76.04546        6.94336       33.97232
N         77.25618        4.09549       34.98425
C         77.78707        3.34698       36.12142
C         79.29985        3.44586       36.13777
O         79.93871        3.14225       35.13873
C         77.30950        1.88904       36.03650
C         75.85468        1.81840       36.43595
C         75.53008        1.75603       37.80250
C         74.82092        1.85768       35.48642
C         74.19814        1.72760       38.21616
C         73.48309        1.83776       35.90474
C         73.16934        1.77243       37.27246
O         71.88821        1.75823       37.69292
H         77.56168        3.79275       34.04832
H         77.41916        3.75662       37.08856
H         77.88347        1.25123       36.74448
H         77.49155        1.48101       35.02187
H         76.31393        1.73157       38.55000
H         75.04740        1.92123       34.42996
H         73.96756        1.67837       39.27330
H         72.69098        1.87948       35.16801
H         71.14196        1.79965       37.07877
N         79.93367        3.88431       37.26634
C         81.36274        4.13652       37.36359
C         81.99698        3.15311       38.33702
O         81.57493        3.07918       39.48377
C         81.63203        5.61179       37.82566
C         81.12333        6.67467       36.81580
C         83.14069        5.85218       38.02832
C         79.61812        6.93480       36.86293
H         79.36956        4.07615       38.10936
H         81.85119        4.00661       36.37226
H         81.15797        5.79586       38.81571
H         81.45183        6.40073       35.79109
H         81.58035        7.65801       37.06380
H         83.68476        5.72233       37.07605
H         83.32386        6.88465       38.39434
H         83.55842        5.17247       38.79765
H         79.01450        6.05957       36.57989
H         79.32856        7.26631       37.88240
H         79.36910        7.75028       36.15413
N         83.09551        2.44002       37.95226
C         83.89421        1.60479       38.84531
C         85.23469        2.28713       39.10002
O         85.43170        3.38828       38.61456
C         84.04973        0.19820       38.24284
O         84.71132        0.24710       37.00537
H         83.44963        2.56982       36.99193
H         83.39878        1.49613       39.83523
H         83.04648       -0.27901       38.14090
H         84.62816       -0.45962       38.92415
H         84.01230        0.22358       36.30065
N         86.19092        1.72405       39.88905
C         87.42910        2.41203       40.26428
C         88.26788        2.84388       39.07266
O         88.60537        4.01652       38.99384
C         88.27651        1.52810       41.18236
H         86.01054        0.78729       40.28195
H         87.16263        3.32302       40.84766
H         88.58022        0.59457       40.66331
H         89.18980        2.07791       41.49854
H         87.69787        1.26453       42.09263
N         88.64950        1.95396       38.11375
C         89.49898        2.31413       36.97750
C         88.94018        3.49817       36.20999
O         89.69271        4.41774       35.91787
C         89.68790        1.11108       36.04861
H         88.31425        0.98168       38.19441
H         90.50941        2.59307       37.35228
H         90.36953        1.37837       35.21208
H         90.15053        0.27245       36.61284
H         88.71638        0.77270       35.63099
N         87.61380        3.57628       35.91492
C         87.01032        4.73538       35.26037
C         87.28159        6.00470       36.05999
O         87.85555        6.93559       35.51190
C         85.49268        4.52878       35.08221
C         85.17538        3.37780       34.11549
C         83.69415        3.21477       33.93547
O         83.02189        4.13508       33.50143
O         83.10084        2.04526       34.23998
H         87.00845        2.79664       36.21429
H         87.45466        4.86381       34.24754
H         85.05081        5.46404       34.67061
H         85.03063        4.31433       36.06596
H         85.59541        2.42362       34.49441
H         85.63787        3.58845       33.13057
N         86.92549        6.10244       37.36909
C         87.20205        7.27423       38.17108
H         88.29521        7.47211       38.19179
H         86.66862        8.15492       37.75723
H         86.85806        7.10624       39.21494
H         86.46356        5.31151       37.82415
Ca        80.64185        3.57666       31.74429
O         80.51291        0.46876       32.88738
H         79.87457        0.54668       33.64053
H         80.92974       -0.42120       33.00577

Ca 1.0



