%chk=holoCaM-CaMKII.loop3.water2.frame54.chk
%nprocshared=20
%mem=10GB
%nosave
#b3lyp/svp scf=(tight,noincore,xqc) Test 
#IOP(5/87=12) Density=Current Pop=(MK,readradii) iop(6/33=2) iop(6/42=6)

holoCaM-CaMKII.loop3.water2.frame54 

   0  1 
C         15.87599       53.31465       85.46870
C         16.05167       52.03749       84.71105
O         15.07150       51.49998       84.21386
H         14.80663       53.61486       85.48605
H         16.22487       53.17210       86.51298
H         16.47087       54.11701       84.98611
N         17.28989       51.48124       84.60027
C         17.53501       50.22902       83.90849
C         18.02066       49.19096       84.91157
O         18.97022       49.44506       85.63936
C         18.54501       50.42569       82.75898
C         18.63699       49.18539       81.90515
O         19.47893       49.11068       80.86684
O         17.97099       48.19645       82.16870
H         18.09107       51.95637       85.04451
H         16.59359       49.86983       83.43489
H         19.54311       50.67881       83.17206
H         18.23044       51.26706       82.11286
N         17.40126       47.98052       84.97666
C         17.72053       46.92001       85.92798
C         19.19950       46.55186       85.91686
O         19.81038       46.58336       86.97614
C         16.83348       45.69402       85.61340
C         16.91441       44.58393       86.66670
C         15.95501       43.44195       86.30131
C         15.94096       42.35472       87.38171
N         15.01277       41.28086       87.02732
H         16.63896       47.80677       84.30558
H         17.45306       47.28081       86.94662
H         17.10114       45.28716       84.61560
H         15.77439       46.03510       85.57591
H         16.62040       45.00712       87.65220
H         17.95218       44.19208       86.73692
H         16.26300       42.99786       85.32884
H         14.92418       43.84726       86.19471
H         15.62549       42.80354       88.35018
H         16.96335       41.93394       87.50403
H         14.04404       41.66158       86.92118
H         15.31209       40.82696       86.13384
H         15.01117       40.56394       87.78830
N         19.84293       46.21952       84.76001
C         21.26046       45.84051       84.70385
C         22.13469       46.91391       84.04666
O         23.34198       46.71971       84.00267
C         21.43053       44.44752       84.03282
C         21.01771       44.40996       82.58354
O         20.57142       45.53603       82.01525
O         21.09153       43.37850       81.93711
H         19.30054       46.26655       83.88747
H         21.65941       45.73866       85.73706
H         20.82514       43.70612       84.59729
H         22.49765       44.14214       84.09661
N         21.62387       48.09576       83.58411
C         22.46868       49.19603       83.13655
C         23.23507       48.97410       81.84567
O         24.07494       49.81522       81.55409
H         20.61508       48.27837       83.65429
H         23.19773       49.41110       83.94948
H         21.85579       50.11177       83.00149
N         23.03360       47.90481       81.01634
C         23.88024       47.67166       79.84145
C         23.76764       48.75358       78.75796
O         24.53741       48.69446       77.81042
C         23.65502       46.25220       79.24907
C         22.51057       46.13586       78.26477
N         22.71030       45.61865       77.02999
O         21.39624       46.50394       78.57408
H         22.32425       47.20601       81.26913
H         24.92297       47.66812       80.23199
H         23.51709       45.53215       80.08583
H         24.57958       45.94579       78.71583
H         23.63713       45.27665       76.73969
H         21.92532       45.53914       76.36592
N         22.83178       49.75211       78.81909
C         22.69001       50.80435       77.81794
C         21.31497       50.81641       77.16628
O         21.06053       51.71616       76.37618
H         22.17677       49.79127       79.61079
H         23.45291       50.71240       77.01403
H         22.84989       51.77928       78.32432
N         20.40217       49.82970       77.39486
C         19.11586       49.71216       76.71302
C         18.02609       49.32383       77.70024
O         18.21745       48.38506       78.46048
C         19.26084       48.63263       75.62460
C         20.07081       49.16450       74.46391
C         19.49841       50.11840       73.60211
C         21.38481       48.73027       74.22731
C         20.22274       50.62412       72.52059
C         22.11459       49.25012       73.15052
C         21.53301       50.19628       72.29162
O         22.22027       50.70069       71.24674
H         20.67286       49.03814       77.99599
H         18.81633       50.66026       76.21186
H         18.27062       48.32297       75.22440
H         19.73773       47.73629       76.07709
H         18.48357       50.46236       73.76201
H         21.84947       48.00514       74.88313
H         19.76399       51.35038       71.86048
H         23.13124       48.91796       72.98390
H         23.13016       50.43606       71.05102
N         16.81757       49.95535       77.68635
C         15.70971       49.61521       78.57763
C         14.67232       48.83109       77.79857
O         14.21612       49.30298       76.76416
C         15.08039       50.90305       79.19087
C         16.13898       51.67846       80.00640
C         13.86650       50.54288       80.07979
C         15.65546       53.03393       80.52814
H         16.64735       50.67525       76.96551
H         16.06491       48.97838       79.42019
H         14.72667       51.55060       78.35741
H         17.02516       51.88047       79.36763
H         16.45225       51.04861       80.86003
H         13.37034       51.44824       80.47965
H         13.08963       50.00686       79.49737
H         14.18030       49.89685       80.92840
H         15.34159       53.67982       79.68067
H         14.81506       52.92722       81.24214
H         16.48555       53.53623       81.06800
N         14.21432       47.63949       78.28047
C         13.18900       46.83875       77.62338
C         11.90542       46.83568       78.43820
O         11.86057       47.44780       79.49627
C         13.71881       45.41162       77.39646
O         13.97202       44.76841       78.61905
H         14.57843       47.30088       79.18517
H         12.93646       47.27266       76.63146
H         14.63698       45.44586       76.76403
H         12.98208       44.80329       76.83307
H         14.94719       44.83321       78.78786
N         10.79948       46.19123       77.97518
C          9.51455       46.16870       78.66981
C          9.61544       45.48371       80.01929
O          9.19576       46.06257       81.01012
C          8.46653       45.44863       77.81477
H         10.86844       45.71254       77.06284
H          9.15338       47.21289       78.81097
H          8.76170       44.39499       77.62370
H          7.48133       45.45992       78.32872
H          8.35556       45.97041       76.84016
N         10.16505       44.24083       80.12448
C         10.28085       43.51282       81.38560
C         11.04037       44.31757       82.42190
O         10.53273       44.50378       83.51954
C         10.99160       42.17252       81.15427
H         10.52908       43.79988       79.26576
H          9.26284       43.28842       81.77565
H         12.01795       42.33025       80.75793
H         11.06019       41.60478       82.10705
H         10.42062       41.56036       80.42410
N         12.26053       44.84270       82.12796
C         13.05700       45.61476       83.07930
C         12.31039       46.83960       83.58628
O         12.47678       47.18556       84.74749
C         14.39514       46.05590       82.45147
C         15.27858       44.85738       82.06249
C         16.59086       45.30877       81.49363
O         16.62578       45.99348       80.48385
O         17.74056       44.93732       82.08414
H         12.62522       44.69184       81.17586
H         13.29501       44.97157       83.95692
H         14.94978       46.66474       83.19566
H         14.19596       46.69155       81.56069
H         14.77848       44.22335       81.30393
H         15.46626       44.23346       82.96328
N         11.46322       47.53312       82.77635
C         10.71394       48.69928       83.19801
H          9.62679       48.48907       83.10925
H         10.93093       48.98762       84.24753
H         10.96670       49.55478       82.53741
H         11.32303       47.21326       81.81309
Ca        19.75146       46.92667       80.48830
O         18.26572       45.77832       77.27696
H         17.63663       45.01522       77.31070
H         19.03628       45.44634       76.75109
O         19.63863       43.72979       79.11184
H         19.35171       43.21831       78.31411
H         19.33655       43.18050       79.87772

Ca 1.0



