%chk=holoCaM.loop2.water2.frame156.chk
%nprocshared=20
%mem=10GB
%nosave
#b3lyp/svp scf=(tight,noincore,xqc) Test 
#IOP(5/87=12) Density=Current Pop=(MK,readradii) iop(6/33=2) iop(6/42=6)

holoCaM.loop2.water2.frame156 

   -2  1 
C          0.16617       76.58753      -15.00706
C          1.32850       75.64391      -14.90265
O          1.92591       75.56482      -13.83863
H         -0.60173       76.29570      -14.25674
H          0.49509       77.62578      -14.80295
H         -0.30457       76.54361      -16.01157
N          1.66587       74.83902      -15.95018
C          2.63777       73.76507      -15.80864
C          4.07554       74.26294      -15.78753
O          4.45280       75.03935      -16.65399
C          2.49368       72.71787      -16.93601
C          2.97514       71.35375      -16.48710
O          2.93819       70.42475      -17.27355
O          3.23727       71.14953      -15.16814
H          1.10613       74.89565      -16.81491
H          2.36470       73.25419      -14.86127
H          3.00239       73.06713      -17.86158
H          1.41972       72.57474      -17.18047
N          4.95589       73.76395      -14.87836
C          6.36847       74.10938      -14.80730
C          7.27184       72.90097      -15.08065
O          8.47475       73.03894      -14.90202
C          6.64396       74.68520      -13.41296
H          4.61483       73.07360      -14.20485
H          6.63292       74.89451      -15.54872
H          6.41930       73.93435      -12.62491
H          7.70600       74.99789      -13.31971
H          6.00707       75.58028      -13.24471
N          6.79194       71.70560      -15.55369
C          7.66232       70.53986      -15.76715
C          7.12078       69.44694      -16.71656
O          7.83362       68.46939      -16.90192
C          8.07807       69.95219      -14.39648
C          6.89905       69.59069      -13.53902
O          6.72023       70.19148      -12.34710
O          6.10203       68.75146      -13.91136
H          5.79024       71.63121      -15.74793
H          8.58811       70.87851      -16.28399
H          8.68172       70.70220      -13.84494
H          8.72163       69.05714      -14.54028
N          5.95237       69.55009      -17.41931
C          5.53258       68.58219      -18.43241
C          5.14574       67.19599      -17.93357
O          4.83391       66.36385      -18.77400
H          5.37937       70.39184      -17.33724
H          6.34937       68.48112      -19.17981
H          4.64509       68.98710      -18.96642
N          5.13440       66.85666      -16.61347
C          4.80778       65.51139      -16.12521
C          3.32102       65.12168      -16.24869
O          2.97029       64.04630      -15.78211
C          5.31131       65.33772      -14.67060
C          4.62913       66.19234      -13.64045
N          5.00266       66.10917      -12.34665
O          3.74275       66.96362      -13.95985
H          5.43248       67.56183      -15.93186
H          5.40662       64.77640      -16.70777
H          6.39988       65.56638      -14.64515
H          5.18279       64.27627      -14.36826
H          5.75497       65.47060      -12.05127
H          4.53240       66.68659      -11.64107
N          2.40022       65.90250      -16.88782
C          1.00534       65.52529      -17.07920
C          0.09258       65.69175      -15.87045
O         -1.08905       65.42634      -16.03423
H          2.70530       66.75669      -17.36503
H          0.95180       64.48558      -17.46991
H          0.57890       66.19020      -17.86188
N          0.52533       66.13754      -14.65286
C         -0.36984       66.34757      -13.50674
C         -0.29525       67.78315      -12.99293
O          0.51549       68.55859      -13.46566
C         -0.01876       65.36091      -12.36038
C         -0.17164       63.89652      -12.78762
O          1.26588       65.60482      -11.83910
H          1.52180       66.33235      -14.52685
H         -1.42487       66.16286      -13.80222
H         -0.74030       65.50811      -11.52950
H          1.93320       65.33662      -12.52100
H          0.03138       63.23071      -11.92227
H         -1.20979       63.71185      -13.13784
H          0.53509       63.64439      -13.60568
N         -1.08923       68.18396      -11.96074
C         -0.96068       69.47948      -11.30424
C         -0.25470       69.23085       -9.99158
O         -0.73472       68.44837       -9.18242
C         -2.34951       70.17628      -11.14707
C         -2.83667       70.65714      -12.54037
C         -2.27384       71.36051      -10.15896
C         -4.20638       71.33953      -12.54247
H         -1.74571       67.50575      -11.54752
H         -0.31187       70.16740      -11.88745
H         -3.07324       69.44604      -10.72170
H         -2.88765       69.78721      -13.22932
H         -2.10630       71.38607      -12.95054
H         -1.95137       71.01390       -9.15602
H         -1.56938       72.13655      -10.52036
H         -3.27096       71.81588       -9.99904
H         -4.98455       70.65291      -12.15178
H         -4.19688       72.27434      -11.94518
H         -4.46760       71.62734      -13.58309
N          0.91027       69.88801       -9.72188
C          1.64270       69.73634       -8.47657
C          1.15799       70.79547       -7.50325
O          0.30887       71.58140       -7.88862
C          3.16487       69.83387       -8.72242
C          3.65864       69.00718       -9.89009
O          3.34094       69.41556      -11.14559
O          4.43957       68.08847       -9.70586
H          1.23728       70.60593      -10.38124
H          1.42127       68.73640       -8.04203
H          3.68726       69.54071       -7.78630
H          3.44459       70.88425       -8.95528
N          1.57865       70.85561       -6.21128
C          0.97738       71.78716       -5.25687
C          1.25279       73.25665       -5.58903
O          0.28574       73.99971       -5.64912
C          1.29102       71.37953       -3.79955
C          0.47773       72.11364       -2.74270
C         -0.92197       72.27187       -2.86092
C          1.11129       72.59950       -1.58428
C         -1.65490       72.91343       -1.85960
C          0.36681       73.22019       -0.57335
C         -1.01327       73.38155       -0.71379
H          2.26276       70.15754       -5.87878
H         -0.11735       71.63643       -5.34781
H          2.37669       71.43816       -3.58108
H          1.00038       70.31025       -3.71244
H         -1.46628       71.90884       -3.71946
H          2.17742       72.47340       -1.44652
H         -2.72526       73.03734       -1.96916
H          0.85828       73.57073        0.32474
H         -1.58820       73.86250        0.06742
N          2.50099       73.76001       -5.86504
C          2.74781       75.14246       -6.28359
C          1.84126       75.58112       -7.42138
O          1.25821       76.65548       -7.37274
C          4.19958       75.10371       -6.79846
C          4.81890       74.04878       -5.91746
C          3.72381       72.98535       -5.88674
H          2.65783       75.81650       -5.40349
H          4.23899       74.68664       -7.83160
H          4.71126       76.09013       -6.81383
H          5.81307       73.67935       -6.24928
H          4.91551       74.48537       -4.89836
H          3.73126       72.36267       -6.80918
H          3.87165       72.35508       -4.98938
N          1.69225       74.75241       -8.48524
C          0.91870       75.03377       -9.68740
C         -0.54955       75.23740       -9.35320
O         -1.14546       76.19321       -9.82805
C          1.08380       73.86894      -10.69171
C          2.56672       73.63201      -11.06354
C          2.75803       72.47635      -11.98767
O          1.70881       71.82566      -12.52201
O          3.89041       72.09415      -12.22528
H          2.16568       73.84203       -8.41396
H          1.31458       75.94562      -10.18849
H          0.50776       74.09515      -11.61637
H          0.67567       72.93965      -10.24154
H          3.16341       73.38140      -10.16720
H          3.00844       74.54243      -11.52073
N         -1.18852       74.37972       -8.51372
C         -2.58335       74.49907       -8.15913
H         -3.21396       74.35771       -9.06077
H         -2.84597       73.71249       -7.41717
H         -2.78090       75.49186       -7.70462
H         -0.65690       73.62373       -8.08176
Ca         3.37049       69.61455      -13.45172
O          0.27800       71.12397      -15.03827
H         -0.20308       71.23405      -14.18338
H         -0.27071       71.61602      -15.69726
O          1.67816       68.62298      -15.71266
H          2.60670       68.43374      -15.99208
H          1.14786       68.72363      -16.54112

Ca 1.0



