%chk=holoCaM.loop1.water2.frame388.chk
%nprocshared=20
%mem=10GB
%nosave
#b3lyp/svp scf=(tight,noincore,xqc) Test 
#IOP(5/87=12) Density=Current Pop=(MK,readradii) iop(6/33=2) iop(6/42=6)

holoCaM.loop1.water2.frame388 

   0  1 
C        108.22633       80.18210       16.32297
C        109.08701       81.36976       16.02757
O        110.17752       81.19310       15.50192
H        107.26482       80.27133       15.77848
H        108.73610       79.24485       16.01138
H        108.03255       80.13118       17.41543
N        108.67499       82.61937       16.38665
C        109.50949       83.79734       16.21268
C        110.03288       84.18292       17.57718
O        109.24496       84.45403       18.47403
C        108.73733       84.94342       15.54490
C        109.65251       86.08723       15.19956
O        109.19353       87.09002       14.67987
O        110.98207       85.99907       15.42322
H        107.77482       82.72197       16.88129
H        110.36492       83.54679       15.54670
H        107.92400       85.29373       16.21850
H        108.27888       84.58268       14.59874
N        111.36920       84.12255       17.82087
C        111.90539       84.09430       19.17187
C        112.17409       85.47680       19.74754
O        112.39600       85.55381       20.94800
C        113.18326       83.21811       19.22496
C        113.04090       81.82111       18.56178
C        111.87582       80.95666       19.06930
C        112.00820       80.58353       20.54936
N        110.89829       79.72693       20.96559
H        111.97478       83.84297       17.04230
H        111.15003       83.60246       19.82440
H        113.49460       83.09951       20.28418
H        114.00545       83.74430       18.69085
H        113.99566       81.26727       18.68983
H        112.90059       81.93948       17.46725
H        111.86243       80.01977       18.46978
H        110.91004       81.47584       18.88995
H        112.01156       81.50125       21.17535
H        112.96804       80.04283       20.70529
H        109.99090       80.23440       20.84936
H        110.88565       78.84950       20.39597
H        111.01960       79.47456       21.97266
N        112.22819       86.60037       18.96918
C        112.52071       87.93060       19.51030
C        111.47185       88.98163       19.12604
O        111.62237       90.12441       19.53591
C        113.96580       88.33060       19.15366
C        114.25044       88.35367       17.68690
O        113.66912       89.14069       16.96379
O        115.17639       87.52389       17.16940
H        112.12762       86.50687       17.94749
H        112.50846       87.90510       20.62200
H        114.64697       87.58810       19.62582
H        114.20500       89.32505       19.58886
N        110.34167       88.65874       18.43225
C        109.22649       89.57507       18.23987
C        109.46565       90.70086       17.25869
O        109.25517       91.85237       17.61168
H        110.19071       87.68776       18.12562
H        108.90075       89.97441       19.22580
H        108.37302       88.99468       17.82656
N        109.79850       90.42030       15.97007
C        109.76947       91.39558       14.87795
C        108.76793       90.94060       13.79846
O        108.69924       91.57379       12.75442
C        111.19959       91.63197       14.33563
C        111.81763       90.36531       13.85827
O        111.31889       89.75485       12.93502
O        112.81651       89.80157       14.54670
H        110.01385       89.44017       15.73051
H        109.42391       92.39057       15.23554
H        111.81483       92.03630       15.16888
H        111.19822       92.38309       13.51617
N        107.90999       89.89201       14.01598
C        106.86734       89.47207       13.09038
C        107.32651       88.61323       11.92611
O        106.45745       88.21252       11.16285
H        107.89479       89.42760       14.93343
H        106.30599       90.36190       12.73063
H        106.14634       88.84011       13.65449
N        108.63192       88.27633       11.70611
C        109.06294       87.44876       10.57670
C        109.91397       86.25907       11.01526
O        110.25232       86.13047       12.18381
C        109.82868       88.31122        9.54074
C        108.92779       89.39173        8.91901
O        110.99107       88.86897       10.10259
H        109.34927       88.64080       12.33913
H        108.17722       87.02124       10.05655
H        110.14779       87.67131        8.69200
H        110.74264       89.72003       10.54661
H        108.55941       90.10019        9.69081
H        109.49964       89.96199        8.15709
H        108.05399       88.91797        8.42282
N        110.28427       85.33603       10.08425
C        111.10529       84.15415       10.32400
C        112.34768       84.23960        9.45153
O        112.23504       84.46649        8.25345
C        110.26983       82.87591       10.00217
C        109.13604       82.64796       11.04096
C        111.13149       81.60506        9.86304
C        109.61193       82.26629       12.45332
H        109.94813       85.46791        9.11722
H        111.44133       84.09174       11.37949
H        109.79169       83.02757        9.00841
H        108.48740       81.82075       10.67898
H        108.50597       83.55985       11.10971
H        111.71184       81.39936       10.78351
H        110.48328       80.73389        9.63031
H        111.84732       81.70550        9.02123
H        108.72942       82.11404       13.10847
H        110.17947       81.31227       12.44253
H        110.23996       83.05511       12.91200
N        113.56861       83.97605        9.99319
C        114.81913       83.95366        9.24456
C        115.27471       82.51328        9.06310
O        114.55574       81.60209        9.45020
C        115.89570       84.79190        9.99236
C        115.46895       86.25396       10.17941
O        116.23748       84.19816       11.22379
H        113.61070       83.70483       10.98411
H        114.68186       84.38331        8.22811
H        116.82268       84.82565        9.38425
H        115.58485       84.49095       11.90917
H        115.27431       86.72809        9.19514
H        114.54836       86.30867       10.79430
H        116.27505       86.81793       10.69617
N        116.46895       82.23023        8.47571
C        117.00990       80.87729        8.36377
C        117.19842       80.28204        9.75591
O        116.77343       79.16184        9.99263
C        118.35522       80.90390        7.59437
C        118.91954       79.49657        7.37552
O        118.15916       81.49010        6.33047
H        117.03527       83.01588        8.12313
H        116.30650       80.24610        7.77400
H        119.10972       81.48303        8.18070
H        118.54627       82.40408        6.35915
H        118.20252       78.88200        6.78912
H        119.87367       79.55960        6.81050
H        119.12225       78.99103        8.34236
N        117.82153       81.00569       10.72957
C        118.05727       80.52977       12.09608
C        116.76909       80.21794       12.87197
O        116.87225       79.61127       13.92891
C        118.88594       81.61433       12.83055
C        119.32695       81.30570       14.26980
C        120.11827       82.50134       14.82059
C        120.55487       82.28928       16.27353
N        121.26570       83.46768       16.77173
H        118.16198       81.94494       10.47082
H        118.65545       79.59419       12.02404
H        118.28467       82.55135       12.84330
H        119.80491       81.79966       12.23026
H        119.95535       80.38857       14.28582
H        118.44179       81.15529       14.92053
H        119.47464       83.40796       14.77582
H        121.01826       82.67325       14.18995
H        121.21932       81.39953       16.33854
H        119.65894       82.10956       16.90863
H        121.55272       83.30473       17.76345
H        122.12019       83.64457       16.19484
H        120.64020       84.30588       16.73577
N        115.53330       80.60209       12.43451
C        114.29495       80.35810       13.17695
C        113.32366       79.47227       12.40044
O        112.26654       79.16705       12.93598
C        113.60899       81.70549       13.49403
C        114.54040       82.68566       14.22464
C        113.88416       84.02075       14.43590
O        113.46306       84.66215       13.48613
O        113.80539       84.54269       15.67185
H        115.46156       81.13594       11.56526
H        114.51394       79.84104       14.13640
H        112.69746       81.53376       14.10833
H        113.29096       82.16154       12.53626
H        115.45185       82.85688       13.61722
H        114.84863       82.25643       15.20232
N        113.59423       79.02157       11.14192
C        112.67404       78.18908       10.39894
H        111.71000       78.71826       10.25638
H        113.09968       77.95772        9.39826
H        112.49936       77.23645       10.94055
H        114.47090       79.27164       10.67635
Ca       112.35339       87.62551       14.72861
O        115.76647       87.04486       13.89839
H        115.27973       86.69908       14.68709
H        115.72670       88.02915       13.99765
O        113.80458       88.44260       12.03293
H        113.84063       89.23185       11.43701
H        112.99370       87.94983       11.74939

Ca 1.0



