%chk=holoCaM-CaMKII.loop2.water2.frame271.chk
%nprocshared=20
%mem=10GB
%nosave
#b3lyp/svp scf=(tight,noincore,xqc) Test 
#IOP(5/87=12) Density=Current Pop=(MK,readradii) iop(6/33=2) iop(6/42=6)

holoCaM-CaMKII.loop2.water2.frame271 

   -2  1 
C         47.84079       47.07403       50.74069
C         48.42951       48.40952       50.37195
O         48.45541       49.31265       51.19208
H         46.99253       46.83311       50.06643
H         48.61775       46.28556       50.62422
H         47.48750       47.06003       51.79283
N         48.97149       48.57182       49.13860
C         49.69305       49.76149       48.69091
C         48.80281       50.97937       48.45342
O         47.87178       50.88055       47.66614
C         50.41243       49.40595       47.37560
C         51.17720       50.56326       46.82679
O         50.94259       50.96703       45.69974
O         52.10278       51.17583       47.58471
H         48.94316       47.75150       48.51112
H         50.48142       50.00660       49.43662
H         49.67372       49.06288       46.61725
H         51.12235       48.57470       47.56680
N         49.10647       52.19038       49.02399
C         48.40479       53.43549       48.69705
C         49.32534       54.54594       48.14831
O         48.79179       55.58448       47.78365
C         47.67092       53.94305       49.94209
H         49.87920       52.23585       49.70449
H         47.63761       53.24235       47.91629
H         46.96003       53.16984       50.30386
H         48.39189       54.17713       50.75432
H         47.08814       54.85961       49.70459
N         50.68952       54.43333       48.08099
C         51.58591       55.50941       47.61196
C         52.51071       55.08182       46.46159
O         53.28771       55.91205       46.00951
C         52.40838       56.07327       48.79940
C         52.99623       54.98399       49.63438
O         52.64994       54.86486       50.79962
O         53.76199       54.03516       49.08139
H         51.12953       53.56880       48.42259
H         51.00201       56.36717       47.21383
H         51.72348       56.65687       49.45323
H         53.19936       56.76767       48.44318
N         52.46213       53.84047       45.90263
C         53.25543       53.43140       44.74568
C         54.75862       53.29365       44.96364
O         55.43699       52.97496       43.99713
H         51.76362       53.18043       46.24842
H         53.07243       54.15289       43.91997
H         52.89421       52.43718       44.40450
N         55.36319       53.51124       46.16698
C         56.81519       53.44007       46.36610
C         57.41659       52.02470       46.28757
O         58.62098       51.90571       46.46831
C         57.21400       54.13836       47.69042
C         56.73683       53.48816       48.96244
N         57.07624       54.03382       50.15091
O         56.04947       52.48054       48.93601
H         54.78120       53.81390       46.95195
H         57.29439       54.05668       45.57324
H         56.82455       55.18025       47.67104
H         58.32276       54.19596       47.73854
H         57.65222       54.88669       50.19502
H         56.76881       53.60231       51.02966
N         56.67315       50.91663       45.99601
C         57.23617       49.57554       45.85865
C         57.60704       48.87708       47.16282
O         58.04463       47.73811       47.08559
H         55.67686       51.02309       45.77355
H         58.11322       49.61156       45.17510
H         56.47076       48.92919       45.37768
N         57.45507       49.46394       48.38427
C         57.77535       48.81764       49.65749
C         56.58408       48.84378       50.59932
O         56.02044       49.90582       50.81973
C         58.95635       49.53777       50.34781
C         60.26357       49.32134       49.58913
O         58.71318       50.91815       50.46350
H         57.11233       50.42676       48.42552
H         58.08562       47.75856       49.51391
H         59.11620       49.08597       51.35766
H         58.24267       51.06508       51.32488
H         61.09518       49.81535       50.13459
H         60.48857       48.23411       49.52623
H         60.20187       49.74037       48.56382
N         56.20317       47.71624       51.26758
C         55.19402       47.73531       52.32568
C         55.68542       48.64559       53.45251
O         56.75632       48.40129       53.99161
C         54.87527       46.29011       52.84250
C         54.27489       45.43726       51.68660
C         53.89348       46.33677       54.03292
C         53.91563       43.99934       52.07102
H         56.69735       46.83445       51.06511
H         54.24892       48.13514       51.91335
H         55.81642       45.81706       53.20155
H         55.00377       45.37603       50.85301
H         53.35414       45.92583       51.30128
H         53.71557       45.32655       54.45198
H         54.30982       46.93138       54.86870
H         52.92244       46.76984       53.71980
H         53.54580       43.46292       51.17143
H         54.80493       43.46611       52.46603
H         53.09850       43.97143       52.82057
N         54.92334       49.69807       53.87431
C         55.27715       50.57266       54.99181
C         54.57319       50.08794       56.23915
O         53.86020       49.10499       56.15657
C         54.86679       52.03009       54.69241
C         55.54856       52.58419       53.48079
O         55.35080       52.08789       52.38536
O         56.35417       53.65747       53.59312
H         53.99223       49.82059       53.45864
H         56.37092       50.52644       55.19185
H         55.12867       52.67374       55.55853
H         53.76640       52.09019       54.53874
N         54.75654       50.68235       57.45000
C         54.15705       50.14534       58.66654
C         52.62675       50.18537       58.64381
O         52.04629       49.13671       58.88019
C         54.76024       50.79388       59.93121
C         54.34031       50.07487       61.19654
C         54.61533       48.70207       61.36456
C         53.68696       50.76819       62.22932
C         54.23305       48.03919       62.53212
C         53.31515       50.10084       63.40206
C         53.58504       48.73768       63.55147
H         55.39574       51.48964       57.51922
H         54.46385       49.07869       58.71442
H         54.50798       51.86926       59.98704
H         55.86740       50.72048       59.86542
H         55.12552       48.13604       60.59666
H         53.47114       51.82458       62.13204
H         54.44405       46.98337       62.64625
H         52.81828       50.64060       64.19718
H         53.29573       48.22203       64.45782
N         51.88974       51.30833       58.34698
C         50.42801       51.32378       58.25506
C         49.87580       50.16947       57.43639
O         48.93935       49.50473       57.85646
C         50.13374       52.64929       57.52756
C         51.24074       53.53601       58.03832
C         52.44208       52.59722       57.97530
H         49.99523       51.33598       59.27977
H         50.31403       52.54316       56.43244
H         49.10144       53.03597       57.66788
H         51.37506       54.49487       57.49258
H         51.02078       53.75805       59.10712
H         52.84827       52.52367       56.94284
H         53.21221       52.98156       58.66708
N         50.45223       49.88560       56.24216
C         50.01950       48.84680       55.31587
C         50.16092       47.46517       55.93185
O         49.20693       46.70120       55.91392
C         50.86145       48.93284       54.02641
C         50.71584       50.30757       53.34423
C         51.59782       50.45938       52.15255
O         51.70873       51.66997       51.60227
O         52.27224       49.54055       51.72693
H         51.26955       50.45797       55.98823
H         48.95952       49.01833       55.02292
H         50.54604       48.13870       53.31427
H         51.93060       48.77773       54.28329
H         51.02570       51.12003       54.02789
H         49.66270       50.50284       53.06036
N         51.33585       47.08056       56.49710
C         51.56238       45.77020       57.05989
H         52.58419       45.72613       57.49842
H         50.82400       45.56183       57.86093
H         51.49098       45.00258       56.26165
H         52.10254       47.75016       56.54486
Ca        53.29950       52.12952       50.11374
O         52.91804       47.90215       49.53511
H         51.96521       47.87175       49.80033
H         52.99541       47.23646       48.80774
O         54.44110       49.97208       47.64688
H         54.12301       49.40242       46.90170
H         54.67343       49.33969       48.36775

Ca 1.0



