%chk=holoCaM.loop4.water3.frame343.chk
%nprocshared=20
%mem=10GB
%nosave
#b3lyp/svp scf=(tight,noincore,xqc) Test 
#IOP(5/87=12) Density=Current Pop=(MK,readradii) iop(6/33=2) iop(6/42=6)

holoCaM.loop4.water3.frame343 

   -3  1 
C         -3.75736       37.61810      104.26493
C         -2.88221       38.63709      103.59828
O         -2.55007       38.44734      102.43832
H         -4.71389       37.53802      103.70420
H         -3.25317       36.62999      104.26282
H         -3.98948       37.90438      105.31165
N         -2.51557       39.77659      104.25235
C         -1.77746       40.85348      103.60823
C         -0.70675       41.42399      104.53176
O         -1.00425       41.78842      105.66038
C         -2.77426       41.93986      103.18493
C         -2.10354       43.02595      102.39632
O         -2.14849       44.29938      102.82905
O         -1.52288       42.75825      101.35608
H         -2.88098       39.93870      105.20302
H         -1.30646       40.48703      102.66753
H         -3.27735       42.36626      104.07816
H         -3.54762       41.47948      102.53093
N          0.55699       41.59329      104.06156
C          1.67577       42.15862      104.80721
C          2.06620       43.51110      104.20909
O          2.33393       44.42417      104.97802
C          2.88882       41.16915      104.76646
C          2.50779       39.80061      105.39294
C          4.12033       41.76545      105.48945
C          3.56759       38.71373      105.17826
H          0.73272       41.32196      103.09169
H          1.40904       42.32116      105.87666
H          3.15857       41.00423      103.69940
H          1.57977       39.42273      104.91830
H          2.31144       39.92091      106.48137
H          4.99996       41.09530      105.42365
H          4.43595       42.72107      105.02303
H          3.89414       41.95108      106.56169
H          3.20806       37.75553      105.60919
H          3.74294       38.56559      104.09142
H          4.52869       38.95878      105.67173
N          2.17329       43.69616      102.85722
C          2.78298       44.88160      102.24775
C          1.84503       45.76229      101.41441
O          2.31007       46.79631      100.95437
C          4.00989       44.42384      101.42524
C          3.69099       43.51531      100.26266
O          2.42266       43.19339       99.95325
O          4.60045       43.05997       99.58907
H          1.88525       42.93051      102.23853
H          3.16474       45.55111      103.04850
H          4.69239       43.87394      102.10950
H          4.55291       45.31012      101.03493
N          0.52988       45.47041      101.20204
C         -0.37914       46.37635      100.49760
C          0.03441       46.61481       99.05821
O          0.32777       47.74325       98.69135
H          0.14485       44.60191      101.59018
H         -0.41797       47.34314      101.04468
H         -1.40475       45.94584      100.49795
N          0.08136       45.56852       98.19556
C          0.53011       45.64639       96.79854
C         -0.49711       45.10195       95.80173
O         -0.18959       45.08238       94.61746
C          1.88511       44.89818       96.63964
C          1.87425       43.45821       97.08415
O          0.74870       42.93011       97.59213
O          2.90431       42.80590       97.06466
H         -0.19420       44.66498       98.59522
H          0.72571       46.70287       96.51238
H          2.63876       45.42419       97.26496
H          2.22622       44.95329       95.58280
N         -1.72505       44.64039       96.18251
C         -2.68600       44.05755       95.24876
C         -2.27680       42.69212       94.69609
O         -3.03709       42.13919       93.91343
H         -2.01636       44.72775       97.16367
H         -2.86669       44.77184       94.41545
H         -3.65088       43.91069       95.78044
N         -1.10716       42.08667       95.05140
C         -0.62860       40.79399       94.56581
C         -0.36660       39.85576       95.74584
O         -0.67773       40.23629       96.86565
C          0.65473       41.03203       93.74628
C          0.37500       41.95388       92.54315
C          1.57265       42.16887       91.65433
N          1.45554       42.95242       90.55778
O          2.64572       41.64110       91.90867
H         -0.48108       42.57376       95.68977
H         -1.37843       40.31118       93.90029
H          1.03141       40.06115       93.36280
H          1.43711       41.48893       94.39329
H          0.03628       42.94820       92.90452
H         -0.43495       41.50760       91.92655
H          0.55732       43.40436       90.32970
H          2.26114       43.10698       89.93415
N          0.16457       38.60297       95.58013
C          0.36033       37.66003       96.68931
C          1.81527       37.17939       96.77919
O          2.40668       36.86169       95.75571
C         -0.59303       36.44272       96.54562
C         -0.59293       35.60649       97.84144
C         -2.03633       36.88348       96.24888
H          0.38737       38.27785       94.62693
H          0.08291       38.14704       97.64747
H         -0.25629       35.80916       95.69589
H          0.42144       35.22944       98.08057
H         -0.95098       36.22191       98.69760
H         -1.26554       34.72966       97.74155
H         -2.08824       37.42558       95.28104
H         -2.69581       35.99394       96.16138
H         -2.42482       37.54475       97.05279
N          2.41882       37.02875       97.99584
C          3.78614       36.55089       98.22091
C          3.77809       35.28346       99.06446
O          3.08645       35.28297      100.06120
C          4.55541       37.63261       99.01570
C          5.97576       37.23563       99.33724
N          6.87681       37.03629       98.34880
O          6.31839       37.10841      100.50362
H          1.86769       37.26111       98.83467
H          4.32025       36.36885       97.26315
H          4.01164       37.83292       99.96876
H          4.59918       38.57287       98.43587
H          6.60974       37.15477       97.36121
H          7.84877       36.77803       98.57306
N          4.58792       34.21725       98.77544
C          4.84580       33.03431       99.62524
C          4.18943       33.03417      101.00770
O          3.41218       32.13390      101.29200
C          6.37406       32.89783       99.85297
C          7.10495       32.45629       98.61307
C          6.96718       31.13266       98.16264
C          7.94107       33.33790       97.91181
C          7.65301       30.69792       97.02653
C          8.61375       32.90609       96.76435
C          8.47260       31.58270       96.31916
O          9.11794       31.15095       95.21728
H          5.12428       34.26559       97.89533
H          4.48438       32.12964       99.08822
H          6.60153       32.14253      100.63963
H          6.76641       33.87264      100.21825
H          6.34070       30.43297       98.70292
H          8.06211       34.35962       98.24446
H          7.54636       29.67200       96.69684
H          9.24515       33.59963       96.22402
H          9.68641       31.73268       94.69316
N          4.51950       33.97633      101.93881
C          4.02743       33.96800      103.31740
C          2.51435       34.06968      103.34796
O          1.85175       33.21770      103.92220
C          4.63311       35.14588      104.12830
C          6.17196       35.15000      104.19584
C          6.71743       33.87689      104.77345
O          7.47234       33.17975      104.11427
O          6.37511       33.49654      106.01870
H          5.16737       34.72133      101.64866
H          4.33438       33.01892      103.80878
H          4.23521       35.10113      105.16614
H          4.31653       36.11608      103.68788
H          6.49904       36.00169      104.83004
H          6.60355       35.31431      103.18640
N          1.91592       35.10218      102.70629
C          0.47930       35.33309      102.61765
C         -0.22458       34.11579      102.04136
O         -1.11239       33.58315      102.69290
C          0.21004       36.54906      101.70457
C          0.86440       37.85786      102.20109
C          0.83871       38.92345      101.14965
O          1.55543       40.04524      101.33114
O          0.25422       38.75057      100.09438
H          2.54869       35.75143      102.23228
H          0.07399       35.54433      103.63228
H         -0.88238       36.70714      101.58139
H          0.63099       36.30979      100.70516
H          1.93691       37.71426      102.41647
H          0.38071       38.21341      103.13480
N          0.12547       33.61468      100.82366
C         -0.52718       32.46184      100.24400
H         -1.60698       32.67318      100.09289
H         -0.07083       32.22592       99.25869
H         -0.40782       31.58160      100.91056
H          0.88404       34.05668      100.28769
Ca         0.45540       41.29101       99.07689
O         -2.34891       40.09190       99.94817
H         -3.22540       40.33332       99.55874
H         -2.27167       39.11876       99.78733
O          2.62843       39.97726       98.13756
H          3.21886       40.59787       98.63436
H          2.79362       40.17152       97.18193
O         -2.47034       42.72451       98.61787
H         -2.98179       42.29801       97.88550
H         -3.08162       43.41339       98.98184

Ca 1.0



