%chk=holoCaM-CaMKII.loop1.water2.frame388.chk
%nprocshared=20
%mem=10GB
%nosave
#b3lyp/svp scf=(tight,noincore,xqc) Test 
#IOP(5/87=12) Density=Current Pop=(MK,readradii) iop(6/33=2) iop(6/42=6)

holoCaM-CaMKII.loop1.water2.frame388 

   0  1 
C         44.00882       79.99290       76.75995
C         42.61742       79.47523       76.69874
O         41.77056       80.03923       77.35885
H         44.69056       79.37301       76.14479
H         44.02556       81.04306       76.40589
H         44.34025       79.95032       77.81971
N         42.30153       78.39488       75.94218
C         40.99662       77.76066       75.97038
C         40.92784       76.84356       77.20590
O         40.96039       75.62837       77.07218
C         40.78650       77.03830       74.62908
C         39.45541       76.40034       74.52727
O         38.48807       76.66863       75.41753
O         39.25288       75.62536       73.61729
H         43.04030       77.96049       75.36854
H         40.19066       78.52293       76.00539
H         41.56206       76.25928       74.49519
H         40.85425       77.75946       73.78208
N         40.88211       77.39753       78.45538
C         40.86988       76.68231       79.72847
C         39.57798       75.92836       80.00118
O         39.58090       75.10213       80.90372
C         41.08934       77.68582       80.88692
C         42.55433       78.14188       80.99176
C         42.74232       79.02098       82.23516
C         44.20169       79.42880       82.49096
N         44.75718       80.24202       81.40562
H         40.86680       78.41052       78.52283
H         41.69685       75.93775       79.72747
H         40.82933       77.20213       81.85038
H         40.40913       78.56360       80.76144
H         42.86563       78.68511       80.07292
H         43.19142       77.23894       81.10879
H         42.39870       78.45327       83.12847
H         42.11541       79.93543       82.14863
H         44.84005       78.53045       82.65541
H         44.21020       80.02042       83.43287
H         44.03098       80.87185       80.99409
H         45.53030       80.83492       81.78619
H         45.15010       79.62293       80.66019
N         38.44965       76.13920       79.27433
C         37.23530       75.33508       79.41641
C         37.10226       74.35593       78.25191
O         36.23188       73.49872       78.30407
C         35.97742       76.21686       79.61382
C         35.95794       77.47488       78.77007
O         36.34056       77.43216       77.46188
O         35.72326       78.53569       79.32608
H         38.48009       76.84746       78.53054
H         37.30950       74.66495       80.30248
H         35.93405       76.53392       80.68103
H         35.06543       75.60590       79.44053
N         37.98769       74.36313       77.21767
C         38.08185       73.34258       76.19043
C         36.82349       73.20248       75.37263
O         36.26283       72.11883       75.32026
H         38.69255       75.09638       77.17862
H         38.34233       72.37774       76.67174
H         38.91936       73.61362       75.50911
N         36.34189       74.26923       74.68782
C         35.12740       74.26950       73.87443
C         35.41166       74.54009       72.38997
O         34.47655       74.47667       71.60522
C         34.13288       75.29464       74.48447
C         34.67121       76.69380       74.59447
O         34.01877       77.61429       75.32829
O         35.71883       76.99495       74.06082
H         36.86948       75.13752       74.77513
H         34.64591       73.26974       73.91965
H         33.91176       74.96010       75.51906
H         33.17887       75.33021       73.91659
N         36.66427       74.84228       71.93296
C         37.01153       75.09537       70.53846
C         37.39561       76.54338       70.26428
O         37.61162       76.87573       69.10856
H         37.42089       74.90286       72.60432
H         36.15091       74.85948       69.88202
H         37.85581       74.43163       70.25168
N         37.45156       77.46777       71.26012
C         37.57023       78.90732       71.05638
C         38.42105       79.51543       72.23156
O         37.84938       79.21209       73.49305
C         36.12436       79.52846       70.84882
C         35.69918       79.55226       69.37519
O         35.11557       78.80353       71.50349
H         37.26285       77.15891       72.21840
H         38.16442       79.13643       70.14479
H         36.09929       80.59080       71.17775
H         35.46391       78.50584       72.36770
H         35.68678       78.53376       68.93902
H         34.66337       79.95675       69.29260
H         36.36612       80.20982       68.78179
N         38.62490       80.97062       72.02692
C         39.42613       81.74778       73.00196
C         38.74897       83.11322       73.11260
O         38.68489       83.85407       72.14155
C         40.95570       81.89810       72.63097
C         41.71202       80.54901       72.74223
C         41.62894       82.95288       73.55310
C         43.11323       80.58739       72.10386
H         38.96738       81.17176       71.06010
H         39.38078       81.25338       73.99395
H         41.04832       82.25636       71.58122
H         41.15380       79.76095       72.20054
H         41.79294       80.25216       73.81114
H         41.37513       82.76466       74.61685
H         42.73245       82.97907       73.47460
H         41.28447       83.97344       73.28329
H         43.02699       80.81244       71.01882
H         43.78676       81.33735       72.56268
H         43.60600       79.59839       72.21310
N         38.20809       83.48305       74.30201
C         37.51723       84.73534       74.58760
C         38.52684       85.79593       75.00430
O         39.69123       85.46651       75.13021
C         36.46402       84.48952       75.71409
C         35.36702       83.51422       75.26842
O         37.08144       84.01666       76.88341
H         38.32208       82.83312       75.07022
H         36.98922       85.08587       73.67698
H         35.95551       85.43708       75.97917
H         37.06678       83.02673       76.88514
H         34.81470       83.91260       74.39758
H         35.82873       82.54402       74.99901
H         34.65148       83.34802       76.10200
N         38.16264       87.09709       75.21435
C         39.09026       88.12005       75.72472
C         39.48634       87.80407       77.15914
O         40.66398       87.85977       77.48099
C         38.49159       89.54854       75.69172
C         38.31039       90.08913       74.27109
O         37.26955       89.58913       76.38116
H         37.18639       87.36201       75.01663
H         40.00865       88.15227       75.09377
H         39.23411       90.21834       76.19113
H         37.15452       90.52067       76.70425
H         37.59904       89.47167       73.68696
H         37.92328       91.12993       74.32635
H         39.28985       90.12173       73.74571
N         38.53677       87.44820       78.06920
C         38.82811       87.03024       79.44203
C         39.86820       85.90964       79.46149
O         40.82732       85.99606       80.21452
C         37.52495       86.63940       80.20305
C         36.66645       85.56339       79.51233
C         35.44426       85.13208       80.32829
C         34.68125       84.04403       79.54483
N         33.78540       83.27577       80.40526
H         37.56382       87.42825       77.73889
H         39.26461       87.88711       80.00104
H         36.89752       87.54846       80.32412
H         37.81311       86.28467       81.21745
H         37.28591       84.65753       79.37542
H         36.30339       85.92104       78.52918
H         34.76606       85.98774       80.55211
H         35.81963       84.71850       81.28751
H         35.40905       83.32745       79.10715
H         34.11556       84.50844       78.70329
H         33.01732       83.87348       80.78345
H         33.37749       82.49262       79.84393
H         34.33615       82.85553       81.18989
N         39.77178       84.86524       78.60032
C         40.76772       83.80658       78.45923
C         42.10196       84.34295       77.97129
O         43.13077       83.89697       78.45886
C         40.25664       82.74645       77.46273
C         39.23074       81.82288       78.15744
C         38.70808       80.71022       77.30052
O         38.75911       79.44396       77.74452
O         38.16647       80.94081       76.24048
H         38.97088       84.86020       77.96145
H         40.94240       83.28975       79.42876
H         41.10632       82.15335       77.10831
H         39.85514       83.24300       76.55980
H         38.38007       82.42302       78.52687
H         39.71056       81.34761       79.03773
N         42.15618       85.29115       77.00247
C         43.37280       85.79331       76.40774
H         44.25717       85.18712       76.69023
H         43.26629       85.76017       75.30176
H         43.52418       86.84849       76.71561
H         41.28489       85.70409       76.68211
Ca        36.86341       78.76670       75.60732
O         35.36525       80.67968       77.12761
H         34.72842       81.41420       77.28541
H         35.02428       79.97159       77.71583
O         34.94273       80.39926       74.24756
H         34.20584       80.92244       74.64436
H         34.60813       80.21478       73.34336

Ca 1.0



