%chk=holoCaM-CaMKII.loop4.water2.frame26.chk
%nprocshared=20
%mem=10GB
%nosave
#b3lyp/svp scf=(tight,noincore,xqc) Test 
#IOP(5/87=12) Density=Current Pop=(MK,readradii) iop(6/33=2) iop(6/42=6)

holoCaM-CaMKII.loop4.water2.frame26 

   -3  1 
C         25.49211       74.99711       48.67628
C         24.76522       75.94936       49.58177
O         25.39461       76.74502       50.25912
H         26.59066       75.13681       48.74459
H         25.24671       73.95280       48.96882
H         25.16916       75.15752       47.62583
N         23.41073       75.90141       49.63945
C         22.57787       76.73483       50.50566
C         22.91220       76.49363       51.98309
O         22.87768       75.35479       52.42650
C         21.11079       76.39234       50.19094
C         20.09929       77.03794       51.07794
O         19.90604       78.36778       51.14068
O         19.37945       76.31886       51.75169
H         22.94726       75.21164       49.02475
H         22.73281       77.80722       50.25561
H         20.98320       75.29121       50.29361
H         20.88508       76.66116       49.13573
N         23.22845       77.54747       52.79768
C         23.60160       77.45302       54.21231
C         22.58209       78.13108       55.14289
O         22.75831       78.05821       56.35091
C         25.00458       78.11931       54.44522
C         24.95718       79.67308       54.27911
C         26.06388       77.50082       53.51863
C         26.25192       80.38761       54.66604
H         23.20365       78.47915       52.38971
H         23.65462       76.38093       54.50184
H         25.29783       77.90261       55.49610
H         24.17520       80.09637       54.94314
H         24.70354       79.95107       53.23871
H         25.84601       77.76206       52.46417
H         27.07829       77.87720       53.75870
H         26.08109       76.39701       53.62740
H         27.08897       80.10898       53.99624
H         26.10190       81.48548       54.57715
H         26.51770       80.15476       55.71877
N         21.55277       78.87592       54.64767
C         20.63263       79.69121       55.45136
C         19.16742       79.29679       55.23938
O         18.30011       79.91349       55.84190
C         20.88747       81.20727       55.18065
C         20.79405       81.64652       53.73682
O         20.50211       80.73650       52.79779
O         21.05719       82.79524       53.42305
H         21.44595       78.90266       53.63294
H         20.83547       79.54348       56.53493
H         21.92300       81.43249       55.51890
H         20.19332       81.81690       55.79836
N         18.82247       78.23447       54.45990
C         17.47208       77.71411       54.32080
C         16.51859       78.57861       53.52402
O         15.37455       78.72075       53.93048
H         19.56052       77.68889       53.99643
H         17.04867       77.44919       55.31436
H         17.54784       76.76647       53.74473
N         16.89365       79.08613       52.31797
C         15.97167       79.64459       51.32984
C         16.05732       78.87412       49.99860
O         15.34444       79.22327       49.06867
C         16.23089       81.15177       51.13966
C         17.60476       81.48003       50.63144
O         18.41780       82.26661       51.36144
O         17.97651       81.07045       49.54360
H         17.88423       79.02853       52.06707
H         14.92360       79.55153       51.68974
H         16.07801       81.65687       52.11842
H         15.48419       81.56528       50.42765
N         16.89812       77.80787       49.84404
C         17.03900       77.01007       48.63966
C         17.58651       77.77507       47.45893
O         17.00867       77.65990       46.38933
H         17.46373       77.48951       50.63412
H         16.06981       76.53016       48.38383
H         17.76779       76.19599       48.85244
N         18.75168       78.48209       47.55412
C         19.43609       79.10081       46.40826
C         20.90451       79.40000       46.72362
O         21.34040       79.25486       47.85838
C         18.75311       80.40570       45.89197
C         17.37473       80.20989       45.24478
C         16.89095       81.45564       44.54968
N         16.63306       82.58529       45.24649
O         16.71468       81.43846       43.34011
H         19.21451       78.47642       48.47473
H         19.47816       78.34732       45.59041
H         19.39305       80.82992       45.08957
H         18.69955       81.15834       46.70741
H         16.61711       79.93704       46.00390
H         17.46232       79.40147       44.48418
H         16.76023       82.61538       46.26799
H         16.29241       83.42887       44.76171
N         21.74322       79.77788       45.71500
C         23.17301       80.01159       45.87726
C         23.48506       81.44203       45.45623
O         23.15250       81.81795       44.33996
C         23.96928       78.98029       45.02499
C         25.48594       79.13150       45.23099
C         23.56778       77.53682       45.37982
H         21.36318       79.86073       44.75919
H         23.48019       79.85887       46.93398
H         23.74043       79.14291       43.94835
H         25.82682       80.14842       44.95228
H         25.75606       78.93611       46.29031
H         26.03585       78.40481       44.59547
H         24.13782       76.81489       44.75637
H         23.77053       77.32137       46.45138
H         22.48929       77.36587       45.17971
N         24.16235       82.28131       46.29068
C         24.54577       83.64607       45.96018
C         26.04660       83.66549       45.70932
O         26.64975       82.60513       45.69254
C         24.05927       84.60870       47.08550
C         25.00096       84.78662       48.25892
N         24.74976       84.25504       49.47111
O         25.98972       85.48321       48.11917
H         24.49319       81.92592       47.18723
H         24.03400       83.96309       45.02606
H         23.05208       84.27887       47.42481
H         23.91694       85.62848       46.66750
H         23.92904       83.66250       49.62334
H         25.40288       84.41912       50.25394
N         26.72963       84.82047       45.51804
C         28.17583       84.85383       45.29935
C         28.95558       84.12902       46.40347
O         29.65889       83.17587       46.09890
C         28.62070       86.32595       45.17581
C         30.11355       86.50223       45.07108
C         30.84178       85.90964       44.02775
C         30.78939       87.27604       46.03001
C         32.22624       86.08902       43.94760
C         32.16976       87.45830       45.94499
C         32.89403       86.86521       44.90207
O         34.22744       87.03658       44.80683
H         26.20013       85.70606       45.54502
H         28.39612       84.33269       44.34115
H         28.24938       86.88262       46.06507
H         28.13444       86.77248       44.28184
H         30.34049       85.30888       43.27965
H         30.24829       87.74459       46.84301
H         32.77978       85.62645       43.14074
H         32.67283       88.06214       46.68969
H         34.72167       87.57382       45.44252
N         28.90375       84.54891       47.69436
C         29.68770       83.96281       48.78270
C         29.39120       82.48423       49.00472
O         30.32954       81.74335       49.26464
C         29.49197       84.77092       50.08485
C         30.04911       86.20421       49.92895
C         29.87217       87.05452       51.15495
O         29.25505       86.57918       52.25408
O         30.28666       88.20278       51.15000
H         28.30925       85.35803       47.90087
H         30.76909       84.03767       48.52843
H         30.05049       84.27767       50.91176
H         28.41212       84.79386       50.35269
H         29.54889       86.73031       49.09142
H         31.13568       86.14205       49.69890
N         28.13294       81.97143       48.89717
C         27.84398       80.54130       49.06197
C         28.62323       79.73102       48.03819
O         29.35446       78.82994       48.42513
C         26.32766       80.26296       48.94831
C         25.56926       80.94927       50.10056
C         24.07665       80.79980       50.03519
O         23.41989       80.29416       51.08039
O         23.43444       81.21572       49.09025
H         27.36611       82.61827       48.65899
H         28.15416       80.21010       50.07883
H         26.13417       79.16868       49.00186
H         25.97846       80.61977       47.96483
H         25.79068       82.02761       50.10807
H         25.92870       80.52667       51.06392
N         28.55407       80.03275       46.71460
C         29.32334       79.33288       45.70998
H         30.40778       79.40867       45.94108
H         29.02045       78.26635       45.67177
H         29.14678       79.79270       44.71339
H         27.96213       80.81063       46.41091
Ca        20.67212       80.41176       50.58235
O         20.02167       83.23525       48.19351
H         20.28824       84.14815       47.91825
H         19.07697       83.32968       48.47405
O         21.62081       84.09842       50.65552
H         22.20702       83.50540       51.18981
H         22.15585       84.92082       50.51961

Ca 1.0



