%chk=holoCaM-CaMKII.loop1.water2.frame315.chk
%nprocshared=20
%mem=10GB
%nosave
#b3lyp/svp scf=(tight,noincore,xqc) Test 
#IOP(5/87=12) Density=Current Pop=(MK,readradii) iop(6/33=2) iop(6/42=6)

holoCaM-CaMKII.loop1.water2.frame315 

   0  1 
C         61.24979       15.17548       46.02230
C         61.54935       13.72484       45.79938
O         60.86758       13.09336       45.00490
H         60.20270       15.28865       46.36853
H         61.92415       15.61277       46.78876
H         61.38776       15.73102       45.07151
N         62.58815       13.13227       46.44647
C         62.93702       11.73661       46.24571
C         61.90434       10.83875       46.91519
O         61.79755       10.84457       48.13379
C         64.36336       11.49712       46.76828
C         64.79078       10.07736       46.64654
O         64.77388        9.50767       45.56789
O         65.20819        9.43445       47.74676
H         63.17784       13.71065       47.06549
H         62.96967       11.53629       45.14997
H         64.43917       11.79912       47.83543
H         65.06742       12.12433       46.18023
N         61.10148       10.04265       46.15543
C         60.04518        9.19319       46.68912
C         60.51853        7.76719       46.96002
O         59.68936        6.97683       47.38829
C         58.85499        9.14463       45.69312
C         58.19247       10.50191       45.38775
C         57.60898       11.16939       46.64480
C         56.70775       12.37683       46.33440
N         57.42016       13.46086       45.65842
H         61.19022       10.10716       45.13647
H         59.67784        9.59876       47.65539
H         58.06433        8.47439       46.09723
H         59.20291        8.70407       44.73118
H         57.36328       10.30203       44.67338
H         58.91697       11.17986       44.89089
H         58.43110       11.48648       47.32117
H         56.97770       10.42737       47.18033
H         56.30228       12.75842       47.29802
H         55.84711       12.04957       45.70981
H         58.23245       13.77290       46.23687
H         57.74444       13.15698       44.71305
H         56.76444       14.26619       45.53434
N         61.80615        7.35071       46.74553
C         62.21915        5.95518       46.93256
C         63.26599        5.77609       48.02440
O         63.63923        4.63911       48.28509
C         62.79226        5.40925       45.61263
C         61.85836        5.61461       44.44802
O         62.27954        6.28390       43.35333
O         60.72879        5.15374       44.47730
H         62.51055        8.02042       46.40610
H         61.34699        5.32930       47.21928
H         63.00952        4.32462       45.72168
H         63.75234        5.92641       45.41228
N         63.81212        6.83026       48.68695
C         64.86957        6.69074       49.67484
C         66.11404        6.05078       49.08809
O         66.64037        5.11180       49.66582
H         63.49255        7.78562       48.47614
H         64.50904        6.11842       50.55591
H         65.14967        7.70987       50.02339
N         66.64417        6.54853       47.94001
C         67.90539        6.13092       47.33144
C         68.89710        7.29583       47.30083
O         69.99682        7.12093       46.79477
C         67.64195        5.55788       45.91599
C         66.97442        6.49962       44.94558
O         66.54674        6.02927       43.76447
O         66.72713        7.65523       45.24088
H         66.12221        7.29859       47.48028
H         68.37288        5.31751       47.92818
H         66.96151        4.68640       46.03975
H         68.58648        5.18685       45.46408
N         68.57952        8.51015       47.84365
C         69.45306        9.66669       47.86412
C         69.78003       10.15804       46.48011
O         70.94576       10.40648       46.21833
H         67.66880        8.65131       48.29716
H         70.38042        9.44173       48.43536
H         68.92103       10.48878       48.39007
N         68.79095       10.37647       45.56608
C         69.01279       10.87951       44.20698
C         67.68889       11.27949       43.56619
O         66.71386       10.54529       43.65994
C         69.73574        9.89015       43.24291
C         71.19907        9.56407       43.56503
O         68.99993        8.70884       43.07275
H         67.82081       10.20894       45.87736
H         69.63313       11.80082       44.27136
H         69.77978       10.40737       42.25741
H         69.05707        8.20218       43.92309
H         71.28538        8.91646       44.45862
H         71.64804        8.99760       42.72344
H         71.78131       10.50158       43.70186
N         67.62017       12.42642       42.83689
C         66.41064       12.93882       42.20695
C         66.57506       12.83174       40.69861
O         67.54916       13.34397       40.16258
C         66.17927       14.40522       42.68390
C         66.00660       14.43415       44.22786
C         64.96179       15.03916       41.98173
C         65.95545       15.84150       44.82380
H         68.48459       12.97576       42.70738
H         65.52008       12.34136       42.50532
H         67.08079       15.00055       42.41460
H         66.87302       13.93017       44.70691
H         65.08544       13.88121       44.51309
H         65.09910       15.03830       40.88174
H         64.03082       14.48658       42.22945
H         64.84034       16.10129       42.27455
H         66.88339       16.39725       44.57029
H         65.07318       16.40823       44.46730
H         65.88188       15.76642       45.92968
N         65.63048       12.19298       39.94888
C         65.69322       12.06705       38.49632
C         64.88394       13.17015       37.85146
O         64.27152       13.95879       38.55303
C         65.17077       10.67416       38.03416
C         66.01703        9.51767       38.57595
O         63.81240       10.50689       38.36579
H         64.77795       11.86903       40.42046
H         66.74192       12.19221       38.14771
H         65.23884       10.60266       36.92858
H         63.75064       10.13226       39.28142
H         65.59982        8.55099       38.21731
H         67.06400        9.60831       38.22175
H         66.00397        9.52454       39.68334
N         64.84880       13.29828       36.50064
C         64.04105       14.30247       35.81757
C         62.56852       14.05276       36.11475
O         61.86969       14.97427       36.50911
C         64.32435       14.26606       34.29527
C         63.53843       15.34337       33.54263
O         65.69329       14.50173       34.07104
H         65.41038       12.64158       35.93711
H         64.33101       15.31743       36.17447
H         64.02678       13.27575       33.87390
H         66.13763       13.62064       33.96450
H         62.44499       15.18920       33.65195
H         63.80278       16.35215       33.92777
H         63.78912       15.30218       32.46146
N         62.05600       12.79609       35.98370
C         60.66272       12.43549       36.24021
C         60.21636       12.88640       37.62708
O         59.21241       13.57858       37.72576
C         60.50046       10.90555       36.04829
C         59.04045       10.42638       36.07097
C         58.95987        8.92265       35.75254
C         57.50494        8.43799       35.67725
N         57.44146        7.01468       35.34053
H         62.70624       12.04799       35.69680
H         60.02638       12.93991       35.47892
H         61.09404       10.35876       36.81462
H         60.91153       10.64742       35.04658
H         58.47255       10.98464       35.29486
H         58.58485       10.62665       37.06463
H         59.50447        8.34626       36.53255
H         59.44352        8.73116       34.76892
H         56.96351        9.01778       34.89655
H         57.00258        8.60856       36.65470
H         57.92463        6.44715       36.07412
H         56.43984        6.71844       35.28882
H         57.88950        6.84282       34.41077
N         60.93496       12.55834       38.73743
C         60.56364       12.96181       40.09620
C         60.48891       14.47744       40.22218
O         59.42607       14.98830       40.54769
C         61.55813       12.37620       41.13150
C         61.46606       10.83779       41.17675
C         62.45888       10.21276       42.11611
O         63.65594       10.38154       41.96325
O         62.03390        9.39325       43.09020
H         61.78988       12.00297       38.59893
H         59.55530       12.55277       40.33164
H         61.32190       12.76895       42.14505
H         62.59006       12.69675       40.86992
H         61.64485       10.41081       40.17284
H         60.43924       10.54819       41.48944
N         61.57108       15.26254       39.97686
C         61.52760       16.70527       40.08357
H         62.51822       17.13478       39.81977
H         60.76751       17.11782       39.38616
H         61.27864       17.00191       41.12428
H         62.45447       14.82617       39.70295
Ca        64.48811        6.74401       43.20467
O         66.52109        7.71958       41.35271
H         66.22647        7.14442       40.60329
H         67.50658        7.64963       41.33745
O         63.49986        6.82654       40.44555
H         62.62183        6.70475       40.00689
H         63.71127        5.93538       40.82254

Ca 1.0



