%chk=holoCaM-CaMKII.loop1.water2.frame24.chk
%nprocshared=20
%mem=10GB
%nosave
#b3lyp/svp scf=(tight,noincore,xqc) Test 
#IOP(5/87=12) Density=Current Pop=(MK,readradii) iop(6/33=2) iop(6/42=6)

holoCaM-CaMKII.loop1.water2.frame24 

   0  1 
C         28.64875       50.41694       23.75871
C         28.05572       49.14560       23.23997
O         27.14332       49.20457       22.42863
H         29.72529       50.45278       23.48522
H         28.14229       51.29681       23.30694
H         28.54456       50.45817       24.86113
N         28.57015       47.94579       23.62995
C         28.13008       46.68807       23.04667
C         26.72003       46.32041       23.52838
O         26.58886       45.81202       24.63390
C         29.15099       45.57359       23.39169
C         28.97257       44.37678       22.52081
O         29.48265       43.31378       22.82486
O         28.43986       44.54177       21.29846
H         29.37267       47.94874       24.27906
H         28.14858       46.84615       21.94519
H         29.07066       45.29945       24.46701
H         30.19139       45.92392       23.22357
N         25.61077       46.64532       22.79879
C         24.25107       46.48475       23.32336
C         23.70581       45.05362       23.31209
O         22.63162       44.86779       23.86763
C         23.25787       47.43059       22.60357
C         23.00534       47.08312       21.12493
C         21.96293       48.03720       20.52098
C         21.58956       47.69125       19.06966
N         22.71898       47.83171       18.14903
H         25.75019       47.17611       21.92986
H         24.26953       46.83381       24.38096
H         23.63500       48.47452       22.68036
H         22.28529       47.38814       23.14343
H         22.61986       46.04366       21.04900
H         23.95356       47.15605       20.55859
H         22.33327       49.08460       20.57048
H         21.03213       47.97044       21.12664
H         20.78028       48.38487       18.74981
H         21.18860       46.65450       19.01953
H         23.10955       48.80046       18.20211
H         23.46318       47.13147       18.36418
H         22.38242       47.65762       17.17455
N         24.33448       44.01047       22.68870
C         23.76692       42.65098       22.64137
C         24.63201       41.63077       23.39100
O         24.23931       40.47489       23.46493
C         23.45515       42.25326       21.17316
C         24.67059       42.13657       20.30271
O         25.88216       42.17386       20.87155
O         24.55984       42.03722       19.09169
H         25.23004       44.18829       22.21219
H         22.78419       42.63484       23.15996
H         22.80220       43.05220       20.75495
H         22.89183       41.29668       21.12785
N         25.77262       42.00463       24.04318
C         26.51708       41.14429       24.95038
C         27.27067       40.00068       24.30868
O         27.08445       38.86749       24.72849
H         26.08521       42.98418       23.99910
H         25.82920       40.76398       25.73782
H         27.28421       41.76694       25.45903
N         28.19941       40.23469       23.33977
C         29.11815       39.21707       22.82727
C         30.58794       39.65976       22.93069
O         31.44572       38.95635       22.41452
C         28.70831       38.78244       21.40774
C         28.62391       39.89008       20.40724
O         29.70714       40.62458       20.10739
O         27.57150       40.09973       19.82659
H         28.27538       41.18807       22.96116
H         29.04562       38.28163       23.42573
H         27.70929       38.29707       21.47827
H         29.42238       38.01595       21.03685
N         30.96662       40.75371       23.65917
C         32.35623       41.12776       23.89743
C         33.05921       41.84577       22.75664
O         34.19944       42.23264       22.96822
H         30.25524       41.28020       24.18446
H         32.93762       40.23603       24.21942
H         32.37132       41.84715       24.74606
N         32.46586       42.10445       21.55424
C         33.10229       42.91397       20.50687
C         32.25640       44.13349       20.18821
O         31.11365       44.19997       20.60508
C         33.34660       42.08148       19.22362
C         34.48802       41.08573       19.41981
O         32.19023       41.37969       18.84855
H         31.51512       41.75546       21.38352
H         34.07731       43.31399       20.86051
H         33.66784       42.74403       18.38706
H         31.52256       42.05379       18.56276
H         34.64623       40.50940       18.48295
H         35.42745       41.63511       19.64743
H         34.26847       40.37949       20.24675
N         32.78921       45.16936       19.47434
C         32.04812       46.38419       19.14682
C         32.07515       46.56905       17.63870
O         33.13892       46.79275       17.07790
C         32.65952       47.61031       19.89330
C         32.58694       47.38913       21.42850
C         31.93629       48.91481       19.49885
C         33.28348       48.47872       22.24692
H         33.77473       45.10873       19.17685
H         30.98955       46.29183       19.47777
H         33.72818       47.70054       19.59631
H         33.08978       46.43327       21.68662
H         31.52449       47.31915       21.74838
H         32.40878       49.79900       19.96960
H         32.00179       49.08615       18.40764
H         30.86754       48.87648       19.79609
H         34.35284       48.55110       21.95577
H         32.79657       49.46572       22.11830
H         33.22680       48.22022       23.32537
N         30.92609       46.46295       16.91627
C         30.86383       46.64529       15.46826
C         30.99922       48.12168       15.11522
O         31.10484       48.94655       16.00765
C         29.52517       46.08527       14.90943
C         29.36552       44.58792       15.19718
O         28.44106       46.78485       15.46036
H         30.06637       46.21629       17.41731
H         31.68562       46.06660       14.99091
H         29.53075       46.20897       13.80231
H         27.69250       46.72230       14.81097
H         30.21242       44.01873       14.75982
H         29.32315       44.38852       16.28757
H         28.42090       44.21882       14.74493
N         30.96740       48.53306       13.81835
C         30.96194       49.94198       13.42771
C         29.72170       50.63105       13.98716
O         29.84597       51.67373       14.61378
C         30.99327       50.06268       11.88300
C         31.03764       51.52611       11.42154
O         32.13549       49.40204       11.40030
H         30.91322       47.81607       13.07949
H         31.87958       50.43993       13.81659
H         30.07544       49.57867       11.47198
H         31.95061       49.15520       10.45652
H         30.13589       52.07872       11.75875
H         31.94283       52.03071       11.82247
H         31.06963       51.56929       10.31235
N         28.49028       50.07701       13.79724
C         27.23407       50.67979       14.24297
C         27.24706       50.96800       15.73204
O         26.98639       52.09684       16.12435
C         26.02873       49.75058       13.94026
C         25.83178       49.37501       12.45615
C         25.67204       50.56306       11.49546
C         24.44918       51.43566       11.81334
N         24.31080       52.50807       10.82938
H         28.45742       49.16901       13.31392
H         27.08085       51.64197       13.70800
H         25.10220       50.24013       14.31012
H         26.13962       48.80173       14.50949
H         24.93076       48.72759       12.38143
H         26.68870       48.76610       12.10364
H         25.55460       50.14987       10.47002
H         26.59351       51.18285       11.50313
H         24.55303       51.88791       12.82292
H         23.53200       50.80572       11.80024
H         23.47133       53.08426       11.06637
H         25.15864       53.12053       10.84528
H         24.18520       52.10414        9.87271
N         27.54579       49.97977       16.61659
C         27.54831       50.15102       18.06677
C         28.47603       51.28738       18.45870
O         28.03073       52.20731       19.13154
C         27.92553       48.81963       18.76256
C         26.85325       47.73940       18.49188
C         27.17097       46.42262       19.13109
O         28.19669       45.83104       18.84701
O         26.28937       45.84875       19.96808
H         27.80320       49.06553       16.22468
H         26.52371       50.41932       18.41088
H         27.99056       48.98283       19.86003
H         28.91940       48.47566       18.39962
H         26.75213       47.55073       17.40608
H         25.87149       48.09597       18.87123
N         29.75799       51.33017       18.01168
C         30.63432       52.44883       18.28245
H         31.60917       52.29833       17.77144
H         30.17975       53.38651       17.89331
H         30.80720       52.54486       19.37406
H         30.10776       50.56900       17.42119
Ca        27.76473       42.90401       19.96855
O         26.50118       43.50944       17.09232
H         26.51338       42.54519       17.31665
H         26.02755       43.55396       16.22433
O         29.26870       41.72795       17.13111
H         30.02506       41.16365       16.83256
H         28.69427       41.80997       16.32957

Ca 1.0



