%chk=holoCaM-CaMKII.loop2.water2.frame7.chk
%nprocshared=20
%mem=10GB
%nosave
#b3lyp/svp scf=(tight,noincore,xqc) Test 
#IOP(5/87=12) Density=Current Pop=(MK,readradii) iop(6/33=2) iop(6/42=6)

holoCaM-CaMKII.loop2.water2.frame7 

   -2  1 
C         55.29002       77.91809       11.27470
C         55.59600       77.84222        9.80551
O         56.48025       78.54961        9.34598
H         54.47092       77.22169       11.55560
H         56.19396       77.64246       11.85803
H         54.98177       78.94946       11.54232
N         54.91172       76.97930        9.00655
C         55.19040       76.81025        7.58680
C         54.87218       78.06449        6.78377
O         53.74521       78.53718        6.82930
C         54.37809       75.62644        7.03191
C         54.69999       75.40698        5.58607
O         53.82138       75.44977        4.74073
O         55.97590       75.20485        5.21801
H         54.19059       76.38175        9.44062
H         56.26616       76.54384        7.47352
H         53.28801       75.80755        7.15754
H         54.64705       74.70607        7.59364
N         55.82191       78.60402        5.96642
C         55.60629       79.74787        5.08872
C         55.79741       79.39816        3.60646
O         55.62447       80.28970        2.78692
C         56.58160       80.85877        5.49249
H         56.74944       78.16869        5.95299
H         54.57166       80.13616        5.20709
H         56.42250       81.76648        4.87242
H         56.42467       81.13237        6.55772
H         57.63263       80.51786        5.36546
N         56.15475       78.14619        3.18131
C         56.37638       77.78587        1.77843
C         55.41912       76.68650        1.31465
O         54.70714       76.92430        0.34829
C         57.87098       77.44560        1.51160
C         58.57527       76.67573        2.60198
O         59.52408       77.19173        3.17047
O         58.15286       75.47040        3.01641
H         56.30142       77.40445        3.87607
H         56.16695       78.65211        1.10939
H         58.41109       78.41700        1.43455
H         57.97787       76.94215        0.52661
N         55.34364       75.46889        1.92468
C         54.48306       74.38116        1.47532
C         55.25890       73.12098        1.11104
O         54.62120       72.13430        0.77265
H         55.90179       75.29249        2.76060
H         53.88040       74.67764        0.59016
H         53.77807       74.13689        2.29751
N         56.62480       73.07552        1.12722
C         57.41679       71.90781        0.72681
C         57.34358       70.70326        1.68176
O         58.02185       69.72057        1.41442
C         58.88392       72.33576        0.47278
C         59.64877       72.84762        1.66660
N         60.91788       73.28048        1.49879
O         59.14001       72.88203        2.77566
H         57.13519       73.93873        1.34779
H         57.04781       71.56926       -0.26664
H         58.87371       73.14401       -0.29173
H         59.44690       71.47822        0.04609
H         61.36034       73.26737        0.56866
H         61.46063       73.63413        2.29447
N         56.52372       70.66990        2.77228
C         56.36674       69.50053        3.63123
C         57.49396       69.25047        4.62347
O         57.37112       68.30048        5.38177
H         55.89751       71.46039        2.95110
H         56.19337       68.59973        3.00276
H         55.45448       69.64866        4.24926
N         58.59175       70.05448        4.71399
C         59.65207       69.87782        5.71254
C         59.78012       71.12426        6.57818
O         59.06743       72.08952        6.35428
C         60.99338       69.55872        5.00012
C         60.96291       68.15957        4.38501
O         61.26983       70.49964        3.99358
H         58.68576       70.84010        4.06112
H         59.41950       69.04345        6.40954
H         61.83539       69.53459        5.72707
H         61.51681       71.34732        4.44588
H         60.15787       68.07174        3.62684
H         61.93939       67.93913        3.90365
H         60.79461       67.40259        5.18254
N         60.71240       71.17440        7.57821
C         60.96490       72.37315        8.36809
C         62.20753       73.02201        7.79116
O         63.23011       72.35775        7.70043
C         61.20373       72.05865        9.88234
C         60.14196       71.10505       10.48243
C         61.25941       73.38752       10.67302
C         60.45449       70.70841       11.93371
H         61.33882       70.36938        7.71888
H         60.09973       73.06965        8.29436
H         62.18389       71.53913        9.97620
H         60.13891       70.16349        9.89336
H         59.12859       71.55652       10.42859
H         62.02517       74.06774       10.25700
H         60.27484       73.90377       10.63175
H         61.53394       73.23041       11.73405
H         60.38710       71.57555       12.62134
H         59.72252       69.95233       12.28475
H         61.47359       70.26882       12.00512
N         62.20178       74.33092        7.41897
C         63.39564       75.01470        6.92965
C         63.99730       75.81191        8.05823
O         63.41902       75.85703        9.12514
C         63.05142       75.90941        5.72817
C         62.58915       75.09154        4.56054
O         63.19496       75.13869        3.50224
O         61.51097       74.29622        4.67571
H         61.35645       74.88846        7.59163
H         64.17241       74.27811        6.62977
H         63.94883       76.48788        5.42001
H         62.25535       76.63305        6.01248
N         65.21872       76.39679        7.92297
C         65.87091       77.05889        9.04465
C         65.12109       78.30969        9.49072
O         64.83631       78.38742       10.68046
C         67.36182       77.32324        8.75126
C         68.06204       77.90630        9.95722
C         68.68350       79.16245        9.87247
C         68.09637       77.20514       11.17881
C         69.32190       79.70927       10.98924
C         68.72968       77.75889       12.29331
C         69.34236       79.00992       12.19896
H         65.72405       76.29544        7.03143
H         65.87094       76.33718        9.89051
H         67.48367       77.98645        7.87715
H         67.85157       76.35849        8.49533
H         68.67243       79.71948        8.94400
H         67.63109       76.23279       11.27688
H         69.79891       80.67735       10.91672
H         68.74423       77.21671       13.23017
H         69.83348       79.43649       13.06332
N         64.73786       79.31998        8.64499
C         63.97001       80.49022        9.06446
C         62.76440       80.12240        9.91471
O         62.53104       80.72654       10.94957
C         63.49400       81.10039        7.73448
C         64.63808       80.76500        6.81081
C         64.93910       79.32484        7.20571
H         64.64256       81.19647        9.60095
H         62.61488       80.53879        7.34131
H         63.22025       82.17540        7.79059
H         64.43839       80.91201        5.72757
H         65.50512       81.39843        7.10684
H         64.21784       78.61412        6.74609
H         65.96747       79.09497        6.88237
N         61.97577       79.09221        9.51125
C         60.77286       78.62339       10.19394
C         61.11100       78.15139       11.59639
O         60.50798       78.63500       12.54428
C         60.11389       77.50889        9.33636
C         59.68787       78.11105        7.97930
C         59.24770       77.14690        6.93084
O         59.03092       77.59335        5.81831
O         59.14767       75.81886        7.11831
H         62.27698       78.59753        8.65988
H         60.03528       79.45415       10.26892
H         59.21861       77.08852        9.84422
H         60.84682       76.68829        9.18151
H         60.53771       78.63420        7.50281
H         58.89057       78.86689        8.14011
N         62.10191       77.24284       11.80232
C         62.52536       76.77404       13.10429
H         63.58788       77.05818       13.26421
H         61.91785       77.20266       13.92726
H         62.44628       75.66743       13.13803
H         62.61503       76.88487       10.99599
Ca        58.82567       74.89388        5.08863
O         56.47379       72.49244        5.21405
H         55.67480       72.80133        4.71911
H         56.14911       71.72195        5.74197
O         57.17123       73.60798        7.89557
H         57.49825       74.17057        8.64102
H         56.63516       72.89932        8.33188

Ca 1.0



