%chk=holoCaM.loop1.water2.frame466.chk
%nprocshared=20
%mem=10GB
%nosave
#b3lyp/svp scf=(tight,noincore,xqc) Test 
#IOP(5/87=12) Density=Current Pop=(MK,readradii) iop(6/33=2) iop(6/42=6)

holoCaM.loop1.water2.frame466 

   0  1 
C         18.37004       74.24795       60.50702
C         17.93550       75.21881       59.45135
O         17.00750       74.91409       58.71588
H         19.26268       74.61597       61.05602
H         17.54771       74.06819       61.22899
H         18.63923       73.29071       60.01218
N         18.56850       76.41412       59.30549
C         18.26287       77.32242       58.21157
C         18.71881       76.68658       56.88560
O         19.89018       76.38691       56.70422
C         18.90579       78.69390       58.46598
C         18.89978       79.53947       57.23619
O         19.96562       79.74745       56.68914
O         17.79105       79.99614       56.63831
H         19.31015       76.66969       59.97715
H         17.16633       77.51511       58.19043
H         19.96995       78.54482       58.74478
H         18.40436       79.21783       59.31294
N         17.78796       76.48320       55.91838
C         17.94710       75.84252       54.61645
C         18.13873       76.86909       53.50200
O         18.82221       76.54889       52.53886
C         16.66319       74.99295       54.37952
C         16.44131       74.42568       52.96972
C         17.53707       73.45812       52.51085
C         17.24221       72.87466       51.11615
N         17.41498       73.86081       50.04470
H         16.84796       76.78173       56.15409
H         18.83408       75.17046       54.61394
H         15.77101       75.63250       54.56691
H         16.64112       74.17056       55.12833
H         16.32761       75.27227       52.26373
H         15.47203       73.87554       52.98485
H         17.56895       72.62209       53.24134
H         18.53064       73.95095       52.49908
H         16.21000       72.45837       51.09433
H         17.94822       72.03679       50.92971
H         18.42211       74.13658       49.98073
H         17.13250       73.42693       49.13619
H         16.82903       74.71079       50.19535
N         17.58393       78.11446       53.55951
C         17.72579       79.11494       52.49866
C         18.68697       80.24633       52.87977
O         18.68125       81.27612       52.21937
C         16.34085       79.50816       51.89443
C         15.21522       79.87706       52.83515
O         15.40412       80.02419       54.15230
O         14.08711       80.00706       52.38831
H         17.05756       78.36895       54.40178
H         18.26013       78.67526       51.62620
H         15.98191       78.61012       51.34519
H         16.45877       80.32127       51.14386
N         19.73201       79.99121       53.73065
C         20.92897       80.82797       53.84177
C         20.74811       82.20558       54.44109
O         21.68672       82.98776       54.39104
H         19.75909       79.08785       54.22288
H         21.35871       80.93933       52.82538
H         21.68415       80.30156       54.46705
N         19.60968       82.55025       55.08534
C         19.36676       83.85804       55.69461
C         19.61265       83.84482       57.21467
O         19.46761       84.88595       57.84012
C         17.93412       84.30853       55.32393
C         16.93661       83.22808       55.61362
O         16.24866       82.75753       54.72391
O         16.89683       82.67919       56.82600
H         18.90538       81.81399       55.20804
H         20.07265       84.61885       55.29024
H         17.88037       84.52083       54.23483
H         17.66589       85.23535       55.87458
N         20.05519       82.72355       57.85725
C         20.40307       82.63537       59.27116
C         19.23316       82.73681       60.23286
O         19.47222       82.92982       61.41628
H         20.23329       81.89430       57.30145
H         21.16730       83.40742       59.49704
H         20.86626       81.64214       59.46469
N         17.94963       82.59370       59.80450
C         16.76600       82.66425       60.65859
C         15.85572       81.45995       60.38654
O         15.99873       80.82358       59.35151
C         16.02722       84.00750       60.43106
C         16.94779       85.22675       60.64030
O         15.46282       84.05958       59.15030
H         17.81052       82.40770       58.81815
H         17.08333       82.63263       61.72482
H         15.19442       84.08664       61.16165
H         16.20076       84.20175       58.50593
H         16.38411       86.16104       60.43491
H         17.34363       85.25777       61.67545
H         17.80585       85.19892       59.93406
N         14.93572       81.05346       61.30758
C         14.17533       79.80466       61.19974
C         12.65889       80.08478       61.16290
O         12.14256       80.76460       62.03645
C         14.62978       78.86072       62.36608
C         16.12692       78.45580       62.16497
C         13.74664       77.60701       62.47753
C         16.70399       77.60037       63.29816
H         14.83817       81.59834       62.17783
H         14.42823       79.26136       60.26714
H         14.52764       79.41338       63.32388
H         16.75258       79.37127       62.10677
H         16.25426       77.90029       61.20656
H         13.83596       76.98805       61.57484
H         14.03715       76.98152       63.34368
H         12.68742       77.88692       62.64115
H         17.78324       77.41009       63.11413
H         16.59635       78.13181       64.26627
H         16.20924       76.60988       63.36073
N         11.88808       79.50224       60.18910
C         10.42583       79.55941       60.05822
C          9.82773       78.25533       60.56421
O         10.59307       77.39137       60.93734
C         10.02269       79.78160       58.56914
C         10.38566       81.18649       58.07967
O         10.56953       78.78474       57.73363
H         12.35854       78.86607       59.55113
H         10.00835       80.36396       60.69825
H          8.92018       79.70829       58.46554
H         11.49724       79.04221       57.49976
H         10.06297       81.31282       57.02321
H          9.85483       81.93754       58.70027
H         11.47819       81.36202       58.15206
N          8.47628       78.04575       60.64282
C          7.88377       76.81244       61.19053
C          8.33346       75.56224       60.46461
O          8.55209       74.54959       61.11654
C          6.33541       76.83772       61.20337
C          5.80272       77.81414       62.25776
O          5.84374       77.14295       59.92017
H          7.84720       78.80067       60.33006
H          8.21864       76.69290       62.24504
H          5.98085       75.82341       61.50312
H          4.86145       77.26904       59.99240
H          6.24423       77.57177       63.24894
H          6.04230       78.86209       61.99139
H          4.70103       77.69795       62.34708
N          8.47684       75.55103       59.11797
C          8.95197       74.38980       58.37669
C         10.35304       74.02768       58.84422
O         10.59930       72.88626       59.20854
C          8.90869       74.73513       56.87690
C          9.22042       73.55199       55.96115
C          9.11089       73.98119       54.49103
C          9.18168       72.76368       53.56285
N          9.34515       73.17053       52.16823
H          8.26507       76.41984       58.60350
H          8.26566       73.52946       58.54798
H          9.58897       75.58777       56.66086
H          7.86631       75.05262       56.64839
H          8.49309       72.74014       56.17635
H         10.25009       73.17277       56.14848
H          9.94523       74.68557       54.27921
H          8.14932       74.50875       54.29684
H          8.24609       72.16756       53.67691
H         10.04266       72.12332       53.84803
H          8.53215       73.74514       51.84893
H         10.22960       73.72048       52.06726
H          9.41876       72.31437       51.57264
N         11.31081       74.99073       58.89474
C         12.67567       74.76138       59.36441
C         12.70669       74.36620       60.84682
O         13.67336       73.74806       61.26857
C         13.52096       76.02284       59.08433
C         13.58849       76.31577       57.57262
C         14.25648       77.61075       57.24565
O         14.83767       77.71480       56.18529
O         13.95938       78.72875       57.92136
H         11.03792       75.93890       58.59515
H         13.11689       73.92586       58.77997
H         14.55118       75.92677       59.48833
H         13.02026       76.86317       59.58810
H         12.57597       76.38429       57.13019
H         14.12179       75.48820       57.05722
N         11.68074       74.68418       61.68826
C         11.57254       74.28368       63.07464
H         10.57268       73.82001       63.22326
H         12.34720       73.54705       63.36399
H         11.63272       75.17547       63.73617
H         10.90628       75.23741       61.33664
Ca        15.61286       80.29288       56.35990
O         12.75126       80.16839       55.65897
H         12.72273       79.96413       54.69295
H         12.18357       80.97122       55.76050
O         13.73314       82.59769       57.29833
H         14.62488       82.95807       57.09813
H         13.17409       83.40983       57.35359

Ca 1.0



