%chk=holoCaM.loop2.water2.frame299.chk
%nprocshared=20
%mem=10GB
%nosave
#b3lyp/svp scf=(tight,noincore,xqc) Test 
#IOP(5/87=12) Density=Current Pop=(MK,readradii) iop(6/33=2) iop(6/42=6)

holoCaM.loop2.water2.frame299 

   -2  1 
C         30.82950       20.92365       46.33328
C         29.72441       20.77325       45.32545
O         28.69126       21.41354       45.45102
H         31.73710       21.31407       45.82103
H         30.55200       21.63300       47.14042
H         31.07286       19.93661       46.77843
N         29.91517       19.95557       44.25821
C         28.98897       19.83327       43.13947
C         27.67134       19.15462       43.48828
O         27.69260       18.04127       43.99373
C         29.66291       19.02203       42.01813
C         28.81281       19.04395       40.78966
O         28.43766       18.00404       40.27466
O         28.42842       20.22762       40.28039
H         30.82021       19.46177       44.20044
H         28.80334       20.85567       42.74143
H         29.85817       17.97752       42.34710
H         30.63883       19.47922       41.76594
N         26.48493       19.73413       43.13328
C         25.18648       19.08016       43.27353
C         24.44207       18.92414       41.93598
O         23.34251       18.38859       41.96524
C         24.34157       19.87957       44.26957
H         26.50052       20.67597       42.72010
H         25.30817       18.05757       43.68984
H         23.35430       19.39413       44.42509
H         24.86363       19.91470       45.24998
H         24.18204       20.91933       43.91191
N         24.94588       19.36494       40.73963
C         24.21455       19.27418       39.46878
C         24.98368       18.52507       38.37656
O         24.36435       17.70341       37.71459
C         23.68092       20.65823       39.03194
C         24.67007       21.76675       38.87921
O         25.98293       21.56959       39.02648
O         24.26517       22.89634       38.65502
H         25.86008       19.82966       40.73070
H         23.27089       18.70050       39.60580
H         22.97184       20.99034       39.82235
H         23.10968       20.56289       38.08264
N         26.30648       18.74395       38.11187
C         27.05434       18.03002       37.08297
C         27.48782       18.92832       35.93932
O         28.09311       18.41490       35.00895
H         26.82797       19.42733       38.66344
H         26.43887       17.22272       36.63211
H         27.94128       17.54557       37.54669
N         27.16088       20.25373       35.89132
C         27.38592       21.08491       34.70840
C         28.85951       21.36522       34.37102
O         29.09323       22.00960       33.35810
C         26.56629       22.40042       34.81575
C         26.99406       23.34183       35.90830
N         26.37775       24.53491       36.06049
O         27.89875       23.03687       36.66034
H         26.62631       20.66062       36.67018
H         26.94786       20.54033       33.84407
H         25.49714       22.14438       34.98805
H         26.63663       22.94386       33.85107
H         25.60441       24.81403       35.44066
H         26.68423       25.18644       36.79549
N         29.89738       20.94232       35.15288
C         31.30400       21.18183       34.83777
C         31.90606       22.37106       35.57647
O         33.08839       22.62227       35.39379
H         29.69777       20.41205       36.00391
H         31.43349       21.36582       33.74862
H         31.87856       20.26017       35.07184
N         31.14348       23.19577       36.34937
C         31.60530       24.45306       36.92960
C         31.14033       24.63027       38.36632
O         29.96840       24.43210       38.64342
C         31.02210       25.64021       36.11795
C         31.57997       25.68896       34.69686
O         29.61839       25.57161       36.04764
H         30.15006       22.99118       36.43050
H         32.71256       24.54890       36.87964
H         31.33800       26.59651       36.60217
H         29.25565       26.05717       36.83348
H         31.28105       24.78768       34.12259
H         31.18776       26.58804       34.17580
H         32.68861       25.75603       34.72412
N         31.97772       25.17123       39.29530
C         31.50383       25.71434       40.57053
C         30.55278       26.87619       40.29151
O         30.92732       27.81555       39.60292
C         32.71174       26.15925       41.46069
C         33.44390       24.88328       41.96405
C         32.27459       27.03285       42.65816
C         34.65876       25.14640       42.85417
H         32.96619       25.31412       39.03824
H         30.95292       24.94300       41.14596
H         33.39380       26.78858       40.84640
H         33.78237       24.28332       41.09315
H         32.73010       24.26105       42.55025
H         31.73289       27.93754       42.31717
H         31.63408       26.46380       43.36290
H         33.16128       27.42330       43.19820
H         34.36856       25.66287       43.79228
H         35.10910       24.17473       43.14824
H         35.41554       25.74830       42.31152
N         29.32213       26.89341       40.87630
C         28.37604       28.00770       40.80372
C         28.47463       28.77050       42.10308
O         29.24472       28.34990       42.94844
C         26.94193       27.46122       40.64014
C         26.81175       26.57013       39.45060
O         27.69046       25.56626       39.32756
O         25.87747       26.68275       38.67374
H         29.08106       26.11793       41.50888
H         28.63334       28.69274       39.96762
H         26.18301       28.27078       40.60071
H         26.71734       26.82571       41.52825
N         27.77663       29.90883       42.35624
C         27.92014       30.59502       43.63626
C         27.37995       29.75005       44.79423
O         28.13300       29.56210       45.73554
C         27.32304       32.01292       43.62913
C         27.54101       32.67890       44.97245
C         28.84160       32.92061       45.46005
C         26.43834       33.03666       45.76465
C         29.02771       33.50419       46.71675
C         26.63006       33.61987       47.02020
C         27.92272       33.85284       47.49641
H         27.16932       30.30554       41.62124
H         29.00991       30.75317       43.80592
H         26.24771       31.98333       43.38779
H         27.81533       32.61772       42.83713
H         29.71312       32.65411       44.87541
H         25.43016       32.85261       45.41602
H         30.02904       33.68276       47.08824
H         25.77464       33.88650       47.62625
H         28.06790       34.30167       48.47038
N         26.12054       29.19681       44.81869
C         25.62938       28.33789       45.89814
C         26.63869       27.28862       46.33593
O         26.80252       27.06186       47.52657
C         24.38991       27.67271       45.27671
C         23.85793       28.78271       44.40312
C         25.13758       29.29769       43.75650
H         25.33173       28.97381       46.76050
H         24.69529       26.85061       44.58824
H         23.66633       27.26577       46.01557
H         23.06033       28.49685       43.68446
H         23.46039       29.57792       45.07632
H         25.45541       28.65201       42.91076
H         24.94126       30.32480       43.40659
N         27.37423       26.63427       45.40184
C         28.39166       25.63016       45.69766
C         29.58953       26.26701       46.39721
O         29.98239       25.79595       47.45403
C         28.78780       24.91709       44.38589
C         27.53511       24.22845       43.78281
C         27.74488       23.56365       42.46295
O         28.82938       23.57047       41.90937
O         26.69431       22.97358       41.86572
H         27.20605       26.88581       44.41491
H         27.96382       24.84023       46.35433
H         29.56677       24.14843       44.58582
H         29.20795       25.65820       43.67765
H         26.72493       24.96321       43.60967
H         27.15759       23.47006       44.50029
N         30.18856       27.37146       45.87256
C         31.30162       28.08260       46.46622
H         32.12926       28.15038       45.72798
H         30.97929       29.11723       46.71699
H         31.67703       27.59261       47.38622
H         29.81178       27.76380       45.01499
Ca        27.10306       23.45562       39.16544
O         29.88506       20.97459       38.26852
H         30.16736       20.02459       38.25370
H         30.65240       21.45722       38.65826
O         30.88895       21.87115       41.20838
H         31.06934       22.73796       40.77362
H         31.75498       21.60721       41.60528

Ca 1.0



