%chk=holoCaM-CaMKII.loop3.water3.frame34.chk
%nprocshared=20
%mem=10GB
%nosave
#b3lyp/svp scf=(tight,noincore,xqc) Test 
#IOP(5/87=12) Density=Current Pop=(MK,readradii) iop(6/33=2) iop(6/42=6)

holoCaM-CaMKII.loop3.water3.frame34 

   0  1 
C         18.80222       73.22102       18.79798
C         17.71702       73.92678       18.04090
O         16.77129       73.27264       17.62927
H         19.59426       73.92747       19.12408
H         18.37148       72.73338       19.69718
H         19.26410       72.44938       18.14746
N         17.78715       75.27218       17.82855
C         16.77198       76.03724       17.10638
C         16.72843       75.53331       15.65512
O         17.61106       75.84438       14.86904
C         17.13383       77.54188       17.24791
C         16.22545       78.65725       16.78747
O         16.66139       79.79328       16.87995
O         14.96731       78.50109       16.32946
H         18.59729       75.77434       18.22402
H         15.80551       75.85576       17.62488
H         18.10952       77.68628       16.73723
H         17.28743       77.74181       18.33252
N         15.78500       74.61648       15.30078
C         15.68026       73.90916       14.02542
C         15.43400       74.85635       12.87010
O         16.18125       74.80372       11.90320
C         14.56030       72.83785       14.13435
C         14.46720       71.90371       12.91497
C         13.50194       70.73719       13.19462
C         13.44047       69.75709       12.01318
N         12.59556       68.60391       12.32940
H         15.14185       74.33156       16.03560
H         16.63133       73.35840       13.84880
H         13.57258       73.31628       14.31686
H         14.80300       72.20522       15.01772
H         15.47350       71.47688       12.71247
H         14.13306       72.47501       12.02159
H         12.48215       71.12692       13.40736
H         13.86286       70.18407       14.09011
H         14.46572       69.39413       11.77753
H         13.03766       70.27863       11.11695
H         11.62135       68.91432       12.54828
H         12.57006       67.96009       11.50558
H         12.99082       68.08306       13.14644
N         14.42680       75.77318       12.91559
C         14.16685       76.72182       11.83476
C         14.75394       78.09630       12.11700
O         14.57477       78.98070       11.28989
C         12.66108       76.77251       11.48370
C         11.73645       77.26714       12.56761
O         10.54403       77.36530       12.32837
O         12.18794       77.60169       13.78980
H         13.87426       75.83953       13.78143
H         14.67918       76.38609       10.90613
H         12.33070       75.75487       11.18475
H         12.53329       77.44150       10.60410
N         15.53616       78.34135       13.20966
C         16.19937       79.61718       13.41576
C         15.25707       80.75704       13.74131
O         15.74196       81.87675       13.82832
H         15.74365       77.58784       13.87792
H         16.78222       79.86322       12.50087
H         16.92810       79.52937       14.24799
N         13.91540       80.57676       13.94562
C         13.01310       81.69584       14.20365
C         13.31572       82.44034       15.50660
O         12.74146       83.50049       15.71045
C         11.52542       81.26830       14.17190
C         11.07830       80.36416       15.29783
N          9.75749       80.16859       15.51049
O         11.89047       79.82734       16.03343
H         13.51761       79.63453       13.87573
H         13.15421       82.40981       13.36213
H         11.27775       80.78291       13.20201
H         10.92544       82.20010       14.24043
H          9.05510       80.62933       14.91400
H          9.43397       79.58665       16.29564
N         14.19235       81.95025       16.42974
C         14.58604       82.65416       17.63805
C         14.25437       81.90014       18.90774
O         14.69071       82.35562       19.95634
H         14.63401       81.04103       16.26969
H         14.11849       83.66096       17.70605
H         15.68602       82.79761       17.59223
N         13.44215       80.79952       18.92281
C         13.00691       80.15069       20.15944
C         13.17532       78.64024       20.09766
O         13.52008       78.10736       19.05124
C         11.52917       80.52265       20.40496
C         11.37053       82.02720       20.41270
C         10.66022       82.66811       19.38300
C         11.97099       82.80482       21.41807
C         10.56767       84.06231       19.35060
C         11.87444       84.19908       21.38478
C         11.17676       84.83274       20.34633
O         11.09064       86.17714       20.29151
H         13.02160       80.47577       18.04470
H         13.61351       80.51798       21.01599
H         11.15319       80.09957       21.36117
H         10.92536       80.08746       19.57908
H         10.19742       82.09174       18.59138
H         12.52548       82.33280       22.21941
H         10.03108       84.54453       18.54327
H         12.35075       84.78553       22.16041
H         11.51036       86.74715       20.95159
N         12.97870       77.89023       21.21987
C         13.13371       76.43811       21.28156
C         11.88791       75.82101       21.89986
O         11.52420       76.19058       23.00910
C         14.40571       76.07670       22.10677
C         15.66564       76.58811       21.35464
C         14.49645       74.55133       22.34532
C         16.97391       76.40311       22.12306
H         12.75640       78.38312       22.09968
H         13.28025       76.00709       20.26492
H         14.33916       76.57547       23.09969
H         15.56555       77.67656       21.16203
H         15.74994       76.07147       20.37211
H         13.61359       74.18352       22.90868
H         14.55516       74.00324       21.38088
H         15.37370       74.29032       22.96847
H         17.20049       75.33345       22.30134
H         17.80934       76.82274       21.52352
H         16.92555       76.94167       23.09273
N         11.23175       74.81445       21.25600
C         10.09676       74.08526       21.81232
C         10.47294       72.62256       22.03367
O         11.61040       72.24907       21.78290
C          8.87855       74.24768       20.88926
O          9.14272       73.71351       19.61943
H         11.58591       74.50771       20.34003
H          9.81284       74.49830       22.80504
H          8.63752       75.33630       20.82746
H          7.98643       73.74118       21.31264
H          8.83630       74.38158       18.95200
N          9.57060       71.74554       22.55641
C          9.89139       70.36268       22.90521
C         10.32388       69.52549       21.71609
O         11.39640       68.94073       21.78415
C          8.69289       69.69063       23.57909
H          8.62428       72.09473       22.77148
H         10.71656       70.37075       23.65396
H          8.96206       68.65639       23.88546
H          8.40709       70.25894       24.48932
H          7.82233       69.64893       22.89121
N          9.53948       69.39251       20.60362
C          9.91269       68.51900       19.48757
C         11.25030       68.88958       18.87712
O         11.82880       68.07422       18.17125
C          8.84482       68.55181       18.38855
H          8.64837       69.91033       20.56310
H          9.99229       67.48520       19.88936
H          8.75893       69.58036       17.97173
H          9.11137       67.85809       17.56224
H          7.85948       68.25060       18.79980
N         11.78051       70.12329       19.07286
C         13.06291       70.53655       18.53773
C         14.15758       69.87714       19.35254
O         14.97808       69.16456       18.79115
C         13.14607       72.07663       18.53124
C         11.97101       72.65259       17.69789
C         12.06926       74.12692       17.53723
O         11.19890       74.88598       17.92794
O         13.11929       74.59301       16.87316
H         11.23573       70.81359       19.60526
H         13.14500       70.22733       17.46972
H         14.11846       72.37412       18.07892
H         13.10576       72.48338       19.56460
H         10.99414       72.41069       18.15800
H         11.99376       72.21027       16.67771
N         14.18318       70.02184       20.70709
C         15.13538       69.33158       21.54922
H         16.16955       69.64707       21.30247
H         14.93084       69.56465       22.61690
H         15.03421       68.23306       21.41105
H         13.47406       70.60989       21.16612
Ca        13.71166       76.67598       16.42176
O         10.73808       74.63859       14.80492
H         10.98981       73.79098       14.36126
H          9.94954       74.40494       15.35704
O          9.18931       77.05236       15.64376
H          9.61300       77.12839       14.75388
H          8.26892       77.38887       15.50644
O          9.96565       77.82855       18.42131
H          9.98413       77.58964       19.38163
H          9.03025       78.10737       18.25402

Ca 1.0



