%chk=holoCaM.loop3.water1.frame22.chk
%nprocshared=20
%mem=10GB
%nosave
#b3lyp/svp scf=(tight,noincore,xqc) Test 
#IOP(5/87=12) Density=Current Pop=(MK,readradii) iop(6/33=2) iop(6/42=6)

holoCaM.loop3.water1.frame22 

   0  1 
C         72.22510       28.86410       43.33592
C         72.74350       30.17648       42.83114
O         73.05172       31.05188       43.62756
H         71.20677       28.68701       42.93047
H         72.89718       28.04711       42.99775
H         72.17896       28.85564       44.44512
N         72.87430       30.37471       41.49237
C         73.38851       31.60898       40.91459
C         72.46851       32.77310       41.26844
O         71.26629       32.67162       41.06860
C         73.56535       31.43386       39.39388
C         74.38559       32.54208       38.79862
O         73.95474       33.80682       38.82810
O         75.46181       32.29655       38.28503
H         72.61518       29.59887       40.86209
H         74.40681       31.78316       41.32800
H         72.58213       31.34913       38.88370
H         74.12483       30.48742       39.21768
N         72.98631       33.90841       41.81531
C         72.19732       35.03998       42.31058
C         71.20107       35.57023       41.27836
O         70.05143       35.78768       41.63384
C         73.16303       36.15487       42.78357
C         72.47417       37.27551       43.58109
C         73.50036       38.32984       44.02872
C         72.85948       39.41606       44.90310
N         73.84402       40.43281       45.27746
H         74.01376       33.96049       41.90335
H         71.62743       34.69574       43.20297
H         73.69851       36.57677       41.90445
H         73.91628       35.69774       43.46424
H         71.99373       36.82900       44.47985
H         71.69273       37.76565       42.96233
H         73.95111       38.79920       43.12677
H         74.30620       37.84081       44.61922
H         72.44631       38.94879       45.82517
H         72.02578       39.90219       44.35062
H         74.20699       40.91168       44.42115
H         73.38722       41.14456       45.89244
H         74.63893       39.99630       45.79898
N         71.56644       35.75688       39.97815
C         70.67571       36.27017       38.92794
C         70.28808       35.20644       37.89860
O         69.41272       35.49501       37.09380
C         71.28554       37.51195       38.20912
C         72.65642       37.23400       37.64494
O         73.64461       37.00991       38.52276
O         72.86189       37.18247       36.44320
H         72.51571       35.47177       39.73319
H         69.71433       36.58725       39.38809
H         71.38044       38.35751       38.92359
H         70.59613       37.83219       37.39805
N         70.86727       33.97159       37.84980
C         70.43779       32.91420       36.94474
C         71.43120       32.59453       35.84110
O         71.18749       31.62910       35.13073
H         71.62505       33.74004       38.49615
H         69.47806       33.16812       36.44445
H         70.25116       32.00561       37.55675
N         72.51477       33.38206       35.56674
C         73.34729       33.17072       34.37671
C         74.40602       32.07065       34.52241
O         75.14728       31.86036       33.57199
C         73.97037       34.50081       33.88730
C         74.98212       35.14377       34.79886
N         75.62699       36.26021       34.39128
O         75.23159       34.66877       35.89407
H         72.64778       34.24213       36.11822
H         72.67809       32.87849       33.53551
H         73.15500       35.23393       33.69924
H         74.47186       34.30471       32.91428
H         75.43061       36.67225       33.46684
H         76.33388       36.70562       34.99213
N         74.52473       31.30431       35.64465
C         75.49605       30.21985       35.77348
C         76.94880       30.65301       35.96302
O         77.79094       29.77364       36.07426
H         73.85070       31.42981       36.40998
H         75.40661       29.54772       34.89255
H         75.23406       29.62332       36.67431
N         77.31880       31.96133       36.05806
C         78.68023       32.43115       36.32330
C         78.68864       33.18861       37.63892
O         77.94778       34.15399       37.76772
C         79.13126       33.33636       35.16235
C         79.47449       32.51033       33.94903
C         78.65218       32.49381       32.81151
C         80.65432       31.74630       33.95620
C         79.00556       31.71542       31.70172
C         81.01246       30.98410       32.84396
C         80.18745       30.96352       31.71192
O         80.52205       30.22927       30.63166
H         76.59436       32.68132       35.96853
H         79.39427       31.58454       36.42169
H         80.03933       33.91890       35.43236
H         78.32221       34.07050       34.94693
H         77.73570       33.06989       32.78723
H         81.30630       31.75514       34.82149
H         78.36253       31.69837       30.83102
H         81.93206       30.41243       32.86440
H         81.33601       29.70567       30.59915
N         79.47441       32.77015       38.68114
C         79.39515       33.34323       40.02347
C         80.75182       33.88024       40.47387
O         81.67860       33.09826       40.63906
C         78.87543       32.25178       41.01419
C         77.54488       31.63475       40.51044
C         78.69865       32.83538       42.42559
C         77.05440       30.44834       41.34277
H         80.09565       31.95751       38.54506
H         78.67033       34.17965       40.02863
H         79.63162       31.43611       41.05735
H         77.68985       31.23875       39.48311
H         76.75909       32.41825       40.48198
H         79.65098       33.24723       42.80047
H         77.93731       33.63954       42.41453
H         78.39168       32.05776       43.15027
H         76.78650       30.75191       42.37370
H         76.14394       30.02160       40.87222
H         77.83309       29.65693       41.37654
N         80.92959       35.21414       40.71263
C         82.17671       35.78046       41.23873
C         82.35744       35.44718       42.71908
O         81.48528       34.82671       43.30245
C         82.17222       37.31263       41.06307
O         81.13103       37.88974       41.80355
H         80.14896       35.85342       40.49605
H         83.03132       35.38466       40.64670
H         82.04158       37.55059       39.98414
H         83.14642       37.73169       41.40008
H         81.23105       38.87189       41.70380
N         83.46361       35.85934       43.40466
C         83.61588       35.67531       44.84805
C         82.59877       36.51758       45.60338
O         81.84227       35.97158       46.39493
C         85.02740       36.06596       45.29893
H         84.21808       36.33183       42.88432
H         83.48773       34.59801       45.10034
H         85.13217       35.90208       46.39381
H         85.77581       35.43074       44.78007
H         85.24587       37.13079       45.07426
N         82.52523       37.86750       45.39245
C         81.58881       38.76112       46.08126
C         80.11763       38.48695       45.76667
O         79.26992       39.17245       46.32232
C         81.90992       40.21845       45.72035
H         83.19090       38.28304       44.72252
H         81.73934       38.64748       47.17749
H         81.25055       40.91644       46.28003
H         82.96159       40.45176       45.99160
H         81.77251       40.38962       44.63080
N         79.73367       37.49129       44.92224
C         78.35452       37.14396       44.63264
C         77.99353       35.90849       45.43391
O         77.03754       35.96642       46.19508
C         78.21357       36.98170       43.10952
C         76.83176       36.50347       42.67528
C         76.70214       36.60668       41.18815
O         76.64403       37.70899       40.66660
O         76.63233       35.51463       40.40965
H         80.44278       36.90200       44.47733
H         77.65791       37.95393       44.94946
H         78.96029       36.25313       42.72212
H         78.42782       37.97506       42.65587
H         76.03602       37.12802       43.12746
H         76.68394       35.45666       43.01177
N         78.74822       34.77840       45.36387
C         78.51026       33.60422       46.17768
H         77.62298       33.71496       46.83525
H         78.35969       32.72265       45.52393
H         79.39791       33.42600       46.82171
H         79.55797       34.75509       44.73599
Ca        75.60293       35.93879       38.47033
O         76.39723       38.42571       37.16569
H         77.04574       38.52686       36.42480
H         75.51622       38.61474       36.75501

Ca 1.0



