%chk=holoCaM.loop4.water3.frame301.chk
%nprocshared=20
%mem=10GB
%nosave
#b3lyp/svp scf=(tight,noincore,xqc) Test 
#IOP(5/87=12) Density=Current Pop=(MK,readradii) iop(6/33=2) iop(6/42=6)

holoCaM.loop4.water3.frame301 

   -3  1 
C         36.08677       37.92839       86.24858
C         36.04707       39.34131       86.73488
O         35.01761       39.97966       86.58649
H         36.93245       37.78096       85.54934
H         36.20288       37.26061       87.12843
H         35.13502       37.66455       85.73641
N         37.13349       39.89746       87.34672
C         37.07508       41.19756       88.00428
C         38.46933       41.74062       88.32029
O         39.28966       41.03256       88.88629
C         36.25747       41.04500       89.28982
C         36.01146       42.34037       89.98561
O         36.09665       42.35554       91.20360
O         36.08574       43.51764       89.33102
H         38.00266       39.34620       87.39943
H         36.55570       41.91695       87.33601
H         36.79075       40.34864       89.97539
H         35.26421       40.60316       89.08250
N         38.78679       43.01463       87.95440
C         40.09940       43.64088       88.09121
C         40.07060       44.95149       88.89491
O         41.13260       45.52765       89.08738
C         40.72461       43.79383       86.66170
C         39.75889       44.44869       85.62261
C         41.15902       42.39450       86.18976
C         40.32313       44.54791       84.20178
H         38.05461       43.56911       87.50550
H         40.77903       42.98985       88.68314
H         41.64893       44.40684       86.74102
H         39.47492       45.46627       85.96735
H         38.84100       43.83916       85.51821
H         41.73891       42.44800       85.24874
H         41.83152       41.93286       86.94366
H         40.27753       41.73447       86.04463
H         40.50801       43.53940       83.77475
H         39.57718       45.03468       83.53671
H         41.26151       45.13623       84.19195
N         38.91767       45.47045       89.41068
C         38.85084       46.70291       90.20960
C         37.95645       46.60632       91.45988
O         38.04667       47.48728       92.30374
C         38.42086       47.89082       89.31575
C         37.14950       47.70175       88.53908
O         36.45650       46.55964       88.60162
O         36.76064       48.59174       87.80311
H         38.05209       44.99193       89.17231
H         39.86722       46.95261       90.58487
H         39.21782       48.06294       88.56356
H         38.31704       48.80661       89.93630
N         37.03237       45.61953       91.62301
C         36.07973       45.53154       92.71837
C         35.16864       46.73692       92.78334
O         34.80484       47.15631       93.87230
H         36.93607       44.90703       90.90951
H         36.58496       45.33726       93.68654
H         35.42106       44.65827       92.51939
N         34.76068       47.34168       91.63461
C         33.81702       48.45125       91.57750
C         32.43141       47.98628       91.98224
O         31.79690       48.61857       92.81441
C         33.81315       49.12086       90.17103
C         33.43878       48.29038       88.95936
O         33.84379       47.01409       88.80720
O         32.80145       48.81199       88.05950
H         35.15360       46.99072       90.75567
H         34.15458       49.25693       92.26900
H         34.82223       49.54086       89.98491
H         33.11544       49.98850       90.21133
N         31.92504       46.85101       91.43454
C         30.60234       46.30840       91.68599
C         29.84812       46.03574       90.38810
O         28.74735       45.51083       90.46479
H         32.53779       46.31818       90.81241
H         30.00689       46.97634       92.34492
H         30.72791       45.33562       92.21010
N         30.38807       46.32609       89.16365
C         29.77482       46.02001       87.87378
C         30.66703       45.07007       87.07785
O         31.74301       44.72978       87.54857
C         29.64481       47.32389       87.05566
C         28.69813       48.34731       87.68096
C         28.59312       49.55493       86.78497
N         29.51082       50.54808       86.84730
O         27.66994       49.63359       85.98828
H         31.30287       46.78053       89.11291
H         28.77993       45.54204       88.00772
H         29.25010       47.08608       86.04527
H         30.65338       47.77602       86.92683
H         29.03245       48.65637       88.69491
H         27.69724       47.87417       87.77296
H         30.28548       50.51009       87.52559
H         29.43341       51.36969       86.22874
N         30.29462       44.64708       85.82700
C         31.17193       43.88633       84.93536
C         31.48544       44.72518       83.68698
O         30.57940       45.19307       83.01252
C         30.59488       42.48791       84.58548
C         29.38249       42.54929       83.64949
C         31.68471       41.60645       83.94637
H         29.36766       44.92076       85.47254
H         32.11557       43.67387       85.47513
H         30.28902       41.99758       85.53686
H         28.94009       41.53744       83.54289
H         28.60878       43.23486       84.04634
H         29.68940       42.88928       82.63693
H         31.28773       40.60370       83.68507
H         32.07812       42.07709       83.02083
H         32.52481       41.46218       84.65857
N         32.78024       44.96715       83.35902
C         33.26811       45.84426       82.29210
C         33.36946       45.12991       80.94104
O         33.13340       43.93967       80.87368
C         34.66035       46.32870       82.77438
C         35.44409       47.23268       81.88022
N         34.99477       48.46977       81.59288
O         36.52631       46.86316       81.44947
H         33.47623       44.57538       83.99351
H         32.57972       46.71100       82.18489
H         35.28418       45.43266       82.98116
H         34.51689       46.87320       83.72717
H         34.09972       48.80856       81.96905
H         35.56178       49.09883       81.01544
N         33.71195       45.82256       79.81050
C         33.88076       45.22967       78.47392
C         35.03149       44.22963       78.39411
O         35.08048       43.46087       77.44376
C         34.10788       46.35535       77.41787
C         35.41164       47.11364       77.63438
C         36.63617       46.59850       77.16557
C         35.41807       48.33353       78.33100
C         37.83887       47.26542       77.43220
C         36.62358       48.98745       78.60908
C         37.83865       48.44356       78.18188
O         39.00794       49.03458       78.50180
H         33.81311       46.83868       79.90338
H         32.93419       44.69790       78.22935
H         33.25035       47.05685       77.50767
H         34.08265       45.96091       76.37889
H         36.66584       45.67334       76.60482
H         34.49362       48.76233       78.69533
H         38.77590       46.84952       77.08238
H         36.61692       49.90953       79.17591
H         39.04983       49.79311       79.10299
N         36.01885       44.22682       79.33089
C         37.20603       43.37802       79.29412
C         37.02065       42.21209       80.25700
O         37.55754       41.13954       80.02237
C         38.42347       44.28565       79.61602
C         39.83127       43.72575       79.37140
C         40.00552       43.18901       77.97884
O         39.73130       43.87741       77.00796
O         40.48094       41.94264       77.79813
H         35.95529       44.90165       80.10097
H         37.31859       42.95851       78.27088
H         38.35777       44.65225       80.66594
H         38.34092       45.17503       78.96393
H         40.08842       42.94257       80.11330
H         40.54417       44.57216       79.50677
N         36.20981       42.35531       81.34084
C         35.84986       41.30718       82.28823
C         34.86500       40.30919       81.67565
O         35.09580       39.11301       81.77658
C         35.23226       41.97880       83.53532
C         36.28636       42.83546       84.27902
C         35.71790       43.64393       85.41157
O         36.49347       44.52679       86.05987
O         34.55333       43.53884       85.73864
H         35.81636       43.28768       81.52180
H         36.75458       40.76685       82.64156
H         34.84117       41.21275       84.23385
H         34.38818       42.62072       83.20625
H         36.75441       43.55678       83.57922
H         37.08606       42.17169       84.67455
N         33.72822       40.73083       81.05394
C         32.71158       39.83932       80.53175
H         31.88379       40.43480       80.08346
H         33.12913       39.17595       79.74618
H         32.28341       39.23023       81.35548
H         33.56872       41.73071       80.94675
Ca        34.45757       44.84692       88.47969
O         33.43630       42.22598       88.10536
H         32.56136       41.78407       88.21823
H         33.75854       41.89217       87.23609
O         34.48391       46.85027       86.15452
H         35.10713       47.60881       86.26614
H         33.58981       47.27281       86.12763
O         33.20021       44.09679       90.61112
H         33.97863       43.63658       90.99787
H         32.41342       43.64636       90.99316

Ca 1.0



