%chk=holoCaM.loop1.water2.frame54.chk
%nprocshared=20
%mem=10GB
%nosave
#b3lyp/svp scf=(tight,noincore,xqc) Test 
#IOP(5/87=12) Density=Current Pop=(MK,readradii) iop(6/33=2) iop(6/42=6)

holoCaM.loop1.water2.frame54 

   0  1 
C         66.93734       27.12098       33.88733
C         66.48450       28.52049       33.62222
O         66.78321       29.40273       34.41584
H         67.52091       27.07442       34.83181
H         66.05673       26.45269       33.96817
H         67.58700       26.78332       33.05209
N         65.78527       28.81008       32.48950
C         65.41949       30.17504       32.15473
C         64.36132       30.69549       33.13470
O         63.24084       30.20381       33.11221
C         64.90827       30.25311       30.69860
C         64.86640       31.66543       30.21490
O         64.32786       31.93376       29.15634
O         65.50644       32.62323       30.90894
H         65.58563       28.04895       31.82147
H         66.36169       30.76577       32.22026
H         63.89960       29.78793       30.63836
H         65.58087       29.70190       30.00639
N         64.67674       31.63306       34.07524
C         63.76454       32.00967       35.16013
C         62.66902       33.00900       34.78743
O         61.76424       33.15526       35.59823
C         64.53992       32.47654       36.41817
C         65.39059       33.74318       36.21808
C         66.15399       34.10490       37.49723
C         67.11155       35.28227       37.25780
N         67.85457       35.60758       38.47413
H         65.66098       31.91376       34.12459
H         63.24456       31.07721       35.47787
H         65.21206       31.64702       36.73094
H         63.81653       32.65364       37.24440
H         64.75229       34.59691       35.90271
H         66.14313       33.55354       35.43944
H         66.75488       33.22696       37.82262
H         65.42981       34.36137       38.30046
H         66.53953       36.17467       36.92155
H         67.83599       35.01482       36.45862
H         68.40105       34.77537       38.79591
H         68.52030       36.38781       38.27025
H         67.19426       35.90946       39.22647
N         62.66146       33.73603       33.62795
C         61.55958       34.64902       33.27622
C         60.85640       34.22097       31.99090
O         59.87963       34.85902       31.62301
C         62.05093       36.12209       33.24326
C         63.04599       36.42668       32.16146
O         63.71405       37.44669       32.20533
O         63.21010       35.56052       31.15476
H         63.45696       33.64417       32.97896
H         60.77871       34.61924       34.06628
H         62.53242       36.31486       34.22690
H         61.19988       36.82973       33.14032
N         61.27033       33.13436       31.27221
C         60.58044       32.64289       30.09600
C         60.59032       33.62753       28.95592
O         59.52009       33.99005       28.48820
H         62.08411       32.58495       31.57910
H         59.53609       32.37613       30.36998
H         61.08370       31.71572       29.74330
N         61.76825       34.06188       28.42256
C         61.84093       34.91167       27.23628
C         62.49501       34.18870       26.05761
O         62.53315       34.76650       24.98038
C         62.52872       36.25616       27.57038
C         63.98878       36.18180       27.92865
O         64.64153       37.30931       28.26673
O         64.59666       35.12712       27.90248
H         62.64522       33.74813       28.85981
H         60.81273       35.16707       26.90003
H         61.98429       36.71934       28.42167
H         62.43971       36.93564       26.69615
N         63.01071       32.92556       26.17466
C         63.56208       32.16502       25.06487
C         65.04413       31.87558       25.20742
O         65.55475       31.14642       24.36835
H         62.99563       32.44193       27.08011
H         63.42145       32.69077       24.09587
H         63.00540       31.20499       25.00500
N         65.82099       32.45728       26.17205
C         67.28075       32.33396       26.19064
C         67.84436       32.28146       27.60384
O         67.12193       32.51943       28.55853
C         67.92141       33.52942       25.43744
C         67.60350       33.53065       23.93675
O         67.54870       34.75430       26.02210
H         65.38612       33.12768       26.81512
H         67.57875       31.38267       25.69632
H         69.02619       33.44412       25.51014
H         66.59223       34.92000       25.80970
H         67.95546       32.58339       23.47560
H         66.51560       33.64405       23.75108
H         68.12713       34.37824       23.44764
N         69.15805       31.95440       27.79741
C         69.80148       31.88793       29.10650
C         71.04169       32.78883       29.09967
O         72.00319       32.49572       28.40320
C         70.11175       30.39537       29.45234
C         68.76690       29.62562       29.61394
C         70.96682       30.25585       30.72409
C         68.90871       28.12967       29.89653
H         69.72754       31.70333       26.97473
H         69.11088       32.26281       29.89217
H         70.69701       29.95715       28.61377
H         68.17273       29.72047       28.68112
H         68.17828       30.07889       30.44282
H         71.25280       29.19859       30.89488
H         71.91829       30.81588       30.62922
H         70.40977       30.61214       31.60721
H         69.41285       27.94340       30.86620
H         67.89665       27.67530       29.96198
H         69.47090       27.63466       29.07795
N         71.05727       33.92733       29.85264
C         72.18139       34.86274       29.96996
C         73.33269       34.25156       30.76025
O         73.23958       33.11045       31.17409
C         71.71596       36.16091       30.69997
C         70.69663       36.96220       29.87731
O         71.23323       35.85707       31.98743
H         70.19819       34.15751       30.35614
H         72.54044       35.15028       28.95773
H         72.56717       36.85916       30.82766
H         70.24207       35.83159       31.97685
H         69.78245       36.36878       29.70004
H         70.41829       37.88690       30.42718
H         71.13790       37.25036       28.90019
N         74.44407       34.99062       31.04517
C         75.51615       34.53803       31.93103
C         74.97971       34.27357       33.33684
O         75.19374       33.18565       33.85254
C         76.66730       35.58061       31.99649
C         77.37300       35.73588       30.64369
O         76.17959       36.82948       32.41811
H         74.51367       35.93596       30.64413
H         75.95516       33.59389       31.53521
H         77.41965       35.20217       32.72909
H         76.95238       37.33890       32.77685
H         76.67838       36.10873       29.86320
H         78.20948       36.46046       30.73931
H         77.79262       34.76090       30.31731
N         74.27394       35.22866       34.01231
C         73.77757       35.06650       35.38085
C         72.91116       33.82440       35.53550
O         73.17600       33.02783       36.42529
C         73.06108       36.35407       35.88037
C         71.79750       36.76968       35.09881
C         71.12737       38.04648       35.63861
C         71.97754       39.32948       35.55164
N         72.30861       39.69066       34.17130
H         74.09121       36.11953       33.52966
H         74.65493       34.94090       36.05487
H         73.80350       37.17692       35.82840
H         72.78201       36.21144       36.94758
H         71.04138       35.96601       35.18476
H         72.03719       36.91610       34.03161
H         70.84690       37.87688       36.70056
H         70.18821       38.21496       35.06627
H         72.90736       39.22803       36.14949
H         71.38723       40.15796       36.00225
H         71.43484       39.80062       33.60679
H         72.82120       40.60215       34.17418
H         72.92794       38.97095       33.73618
N         71.88849       33.57411       34.67518
C         71.03196       32.39121       34.74479
C         71.87828       31.12894       34.65108
O         71.76786       30.27691       35.52155
C         69.95279       32.45716       33.63398
C         68.98282       33.63138       33.88145
C         67.94956       33.79845       32.80342
O         68.28100       33.99577       31.65096
O         66.64551       33.82466       33.11214
H         71.74265       34.24310       33.90784
H         70.49403       32.36763       35.71949
H         69.36205       31.51404       33.62720
H         70.45103       32.58494       32.64900
H         69.54004       34.58398       33.93933
H         68.47416       33.46949       34.85333
N         72.79704       30.98218       33.65941
C         73.70409       29.85765       33.54599
H         74.74991       30.22302       33.64101
H         73.53187       29.09128       34.32963
H         73.58522       29.38471       32.54946
H         72.89410       31.73129       32.97237
Ca        65.19305       34.78901       30.58186
O         67.23937       37.07367       31.93618
H         66.32148       37.15329       31.57490
H         67.42872       37.96408       32.32490
O         67.36291       36.17647       28.85321
H         67.68797       36.97217       28.36140
H         67.93053       35.43244       28.53035

Ca 1.0



