%chk=holoCaM.loop3.water2.frame2.chk
%nprocshared=20
%mem=10GB
%nosave
#b3lyp/svp scf=(tight,noincore,xqc) Test 
#IOP(5/87=12) Density=Current Pop=(MK,readradii) iop(6/33=2) iop(6/42=6)

holoCaM.loop3.water2.frame2 

   0  1 
C         48.81660       53.87397       45.13077
C         49.42709       54.39050       43.86155
O         49.00071       55.42563       43.37070
H         47.74335       53.64856       44.95922
H         49.31671       52.94005       45.46779
H         48.91578       54.63410       45.93161
N         50.41815       53.68646       43.25555
C         51.04687       54.06545       42.00402
C         50.59360       53.05777       40.96646
O         51.35642       52.19489       40.55950
C         52.57140       54.13781       42.22822
C         53.32431       54.51118       40.98941
O         53.09528       55.56178       40.41379
O         54.28267       53.69103       40.52868
H         50.72416       52.79678       43.68074
H         50.71807       55.07118       41.65643
H         52.94982       53.16220       42.60218
H         52.78632       54.90784       42.99892
N         49.29965       53.10463       40.53364
C         48.71228       52.15452       39.58834
C         49.29127       52.24319       38.17885
O         48.93484       51.40530       37.36134
C         47.18957       52.38321       39.47791
C         46.45184       52.12607       40.79849
C         44.94489       52.32231       40.60756
C         44.17451       51.95372       41.87901
N         42.73535       52.11289       41.67639
H         48.69830       53.84358       40.92884
H         48.89113       51.12654       39.97469
H         46.77352       51.67812       38.72445
H         46.99551       53.42237       39.12698
H         46.80813       52.80976       41.59863
H         46.65010       51.07854       41.11337
H         44.59388       51.66776       39.77997
H         44.73996       53.38188       40.33566
H         44.50526       52.59936       42.72272
H         44.38974       50.89344       42.14042
H         42.51034       53.11349       41.47168
H         42.41532       51.51042       40.88304
H         42.23308       51.82036       42.54513
N         50.15957       53.22369       37.80919
C         50.73537       53.33944       36.47033
C         52.25300       53.11546       36.50146
O         52.86682       53.11028       35.44371
C         50.33434       54.68608       35.81992
C         50.72599       55.85609       36.67044
O         51.86842       56.49056       36.40096
O         50.12736       56.10891       37.70259
H         50.44441       53.91764       38.50989
H         50.33920       52.54185       35.80395
H         49.23978       54.73085       35.63197
H         50.84010       54.75395       34.83117
N         52.90407       52.82073       37.66442
C         54.27098       52.34278       37.74402
C         55.37256       53.34750       37.48454
O         56.51401       52.91754       37.58809
H         52.38201       52.79059       38.54106
H         54.38623       51.47634       37.05698
H         54.43746       51.94650       38.76927
N         55.17689       54.65887       37.13487
C         56.33319       55.50140       36.81113
C         57.23423       55.83104       38.00483
O         58.31797       56.34199       37.76035
C         55.99915       56.77260       35.99082
C         55.08766       57.84147       36.60167
N         55.22835       59.12759       35.93025
O         55.16214       58.00483       37.97796
H         54.22132       55.02146       37.00869
H         56.95702       54.90270       36.10891
H         55.52063       56.47028       35.03356
H         56.96787       57.24788       35.73102
H         56.19393       59.48875       36.11044
H         54.56078       59.80176       36.37094
N         56.87909       55.58416       39.30195
C         57.76267       55.85070       40.43672
C         57.26071       56.95803       41.34604
O         57.94706       57.26091       42.31326
H         55.95136       55.19590       39.50605
H         58.77084       56.16713       40.08914
H         57.89417       54.91340       41.01612
N         56.13404       57.66704       41.05722
C         55.73846       58.89081       41.74450
C         54.23929       58.93010       41.96946
O         53.48765       58.56231       41.07495
C         56.13172       60.08398       40.85518
C         57.63025       60.17871       40.68237
C         58.21510       59.98931       39.41959
C         58.45701       60.46018       41.78529
C         59.60185       60.07798       39.26340
C         59.84244       60.55286       41.62561
C         60.41972       60.36222       40.36237
O         61.75441       60.45159       40.19267
H         55.60465       57.42200       40.21492
H         56.26408       59.01167       42.71796
H         55.77379       61.03658       41.30343
H         55.63651       59.96423       39.86797
H         57.60007       59.76696       38.55670
H         58.03005       60.61393       42.76855
H         60.04106       59.92721       38.28557
H         60.46523       60.77428       42.48363
H         62.35412       60.65422       40.92502
N         53.73359       59.47000       43.11261
C         52.30667       59.60317       43.38506
C         51.95310       61.08119       43.42264
O         52.54504       61.82235       44.19714
C         51.95369       58.89810       44.72383
C         52.34236       57.39883       44.65226
C         50.45014       59.05969       45.04121
C         52.24122       56.67799       45.99626
H         54.39181       59.83522       43.81988
H         51.70491       59.11563       42.58482
H         52.54513       59.38198       45.53328
H         53.40262       57.30284       44.33579
H         51.70967       56.88257       43.89755
H         50.17046       60.13140       45.11157
H         49.83140       58.58670       44.24821
H         50.18949       58.60570       46.01685
H         51.20339       56.66197       46.38162
H         52.57432       55.62609       45.87236
H         52.90470       57.17170       46.73881
N         50.96048       61.56372       42.62357
C         50.52814       62.95605       42.59758
C         49.12082       63.09318       43.15461
O         48.51202       62.09723       43.52074
C         50.59549       63.48762       41.15142
O         49.69255       62.80417       40.31870
H         50.46328       60.89855       42.01962
H         51.19462       63.58021       43.23171
H         51.63649       63.40800       40.76133
H         50.33886       64.56668       41.11717
H         50.20456       62.10305       39.83812
N         48.54837       64.32420       43.26201
C         47.19281       64.55044       43.75095
C         46.16720       63.91567       42.83472
O         45.27280       63.24227       43.32497
C         46.90499       66.05290       43.84648
H         49.10847       65.14526       42.98364
H         47.08888       64.14001       44.78127
H         47.62661       66.53184       44.54189
H         46.98496       66.54074       42.85193
H         45.88006       66.21754       44.24540
N         46.22368       64.11288       41.48529
C         45.21337       63.59756       40.56496
C         45.08904       62.07498       40.55291
O         44.13457       61.59697       39.95457
C         45.49569       64.09787       39.14237
H         46.99223       64.68958       41.10903
H         44.23388       64.01385       40.88993
H         45.53231       65.20838       39.13035
H         46.47291       63.70619       38.78453
H         44.69821       63.76999       38.44239
N         45.98871       61.25015       41.17036
C         45.83589       59.79311       41.22060
C         45.76363       59.25828       42.64958
O         45.51408       58.07056       42.80568
C         46.97388       59.09328       40.44305
C         48.36233       59.35447       41.04389
C         49.43539       58.62627       40.29057
O         49.42557       57.28145       40.23455
O         50.33533       59.24653       39.74776
H         46.81642       61.66814       41.61102
H         44.88218       59.50061       40.73006
H         46.96028       59.44641       39.38839
H         46.78091       57.99744       40.43828
H         48.39787       59.01784       42.10188
H         48.56263       60.44092       41.00509
N         45.98839       60.04598       43.73944
C         45.94099       59.53224       45.08980
H         44.92119       59.15747       45.31646
H         46.68081       58.71267       45.21118
H         46.19161       60.34204       45.80899
H         46.22183       61.03593       43.63034
Ca        53.04138       57.31765       38.12193
O         52.89579       60.50181       38.61663
H         52.46721       61.22959       38.10057
H         53.60091       60.95576       39.14116
O         50.52794       59.39541       36.66219
H         49.99511       60.21510       36.81947
H         51.37865       59.72173       36.27446

Ca 1.0



