%chk=holoCaM-CaMKII.loop4.water1.frame417.chk
%nprocshared=20
%mem=10GB
%nosave
#b3lyp/svp scf=(tight,noincore,xqc) Test 
#IOP(5/87=12) Density=Current Pop=(MK,readradii) iop(6/33=2) iop(6/42=6)

holoCaM-CaMKII.loop4.water1.frame417 

   -3  1 
C         59.55649       62.15409       48.61869
C         58.64491       62.29223       49.78747
O         57.85021       63.21968       49.82527
H         60.52731       61.73503       48.95788
H         59.09840       61.47085       47.87459
H         59.74121       63.15028       48.16871
N         58.68687       61.37155       50.78112
C         57.83180       61.45798       51.94116
C         58.22689       62.66284       52.80953
O         59.33112       62.69455       53.33297
C         57.92495       60.14498       52.72402
C         56.96063       60.14424       53.83186
O         56.99948       59.25843       54.65007
O         56.06451       61.13500       53.90695
H         59.33284       60.57168       50.69152
H         56.77986       61.56077       51.58171
H         58.95312       60.00771       53.11490
H         57.66214       59.28127       52.07115
N         57.36368       63.70651       52.95786
C         57.70107       64.99027       53.58695
C         57.58077       65.00444       55.11288
O         58.21627       65.86268       55.71206
C         56.84389       66.11489       52.90168
C         57.33462       66.38811       51.45604
C         56.67844       67.41849       53.69676
C         58.65901       67.15838       51.37949
H         56.48571       63.63975       52.42717
H         58.77239       65.19932       53.39299
H         55.81204       65.73769       52.82291
H         56.56890       66.98457       50.91554
H         57.44107       65.42801       50.91398
H         57.65325       67.88795       53.92811
H         56.04654       68.12793       53.11856
H         56.13910       67.21338       54.64704
H         59.48340       66.63027       51.89706
H         58.94985       67.29079       50.31765
H         58.54328       68.16849       51.82430
N         56.74586       64.17714       55.80475
C         56.55572       64.27041       57.26200
C         56.85641       62.96414       58.00798
O         56.81819       62.98312       59.23125
C         55.16706       64.87603       57.60776
C         53.95523       64.19266       57.04135
O         52.84529       64.63452       57.27915
O         54.06377       63.13694       56.23803
H         56.19407       63.49969       55.26686
H         57.28105       64.99967       57.69111
H         55.14602       65.92152       57.23060
H         55.05580       64.91599       58.71383
N         57.26375       61.83042       57.36572
C         57.81486       60.67309       58.06313
C         56.79161       59.68008       58.58008
O         56.81735       59.35796       59.75887
H         57.36200       61.84287       56.34227
H         58.50349       61.01041       58.87058
H         58.44082       60.11120       57.33798
N         55.90484       59.10249       57.72228
C         54.97522       58.02106       58.07438
C         55.13168       56.77219       57.17988
O         54.93423       55.67136       57.67431
C         53.52648       58.54105       58.11543
C         53.13831       59.39874       56.95524
O         52.73505       60.66599       57.17003
O         53.17508       58.96316       55.82326
H         55.88611       59.47357       56.76643
H         55.17386       57.66195       59.10831
H         53.41908       59.17769       59.01837
H         52.82157       57.68797       58.20470
N         55.52357       56.86628       55.88021
C         55.79065       55.76018       54.97039
C         55.05648       55.89864       53.64610
O         55.28119       55.06618       52.77891
H         55.67274       57.78830       55.50779
H         55.55216       54.77812       55.43145
H         56.87693       55.77245       54.73175
N         54.16093       56.90398       53.41567
C         53.40281       57.05514       52.18130
C         53.53701       58.45930       51.60875
O         54.00238       59.35835       52.29733
C         51.94552       56.59258       52.42669
C         51.20400       57.27015       53.60125
C         50.75796       58.66546       53.28755
N         49.81650       58.86380       52.33943
O         51.20623       59.61430       53.91306
H         53.96059       57.56949       54.16044
H         53.82457       56.37730       51.40891
H         52.02065       55.51759       52.69850
H         51.34757       56.65452       51.49321
H         51.82166       57.23873       54.51993
H         50.28628       56.69011       53.83560
H         49.40180       58.06859       51.83363
H         49.47297       59.80485       52.13112
N         53.22697       58.68200       50.29660
C         53.42908       59.95715       49.61669
C         52.09971       60.40370       49.01902
O         51.62973       59.78355       48.07535
C         54.54756       59.79716       48.53620
C         54.81995       61.08525       47.74060
C         55.87016       59.34130       49.18020
H         52.88685       57.88955       49.73204
H         53.77901       60.72087       50.33556
H         54.22572       59.01530       47.81427
H         55.57260       60.88123       46.94683
H         53.90258       61.45016       47.23847
H         55.22626       61.88194       48.39707
H         56.22549       60.10125       49.90306
H         55.74876       58.37718       49.71495
H         56.65664       59.20258       48.40774
N         51.41899       61.46046       49.55016
C         50.17217       61.99127       49.00090
C         50.46966       62.73508       47.71738
O         51.62406       62.80987       47.33358
C         49.51970       62.98511       49.99561
C         49.13430       62.33021       51.29387
N         49.98061       62.34264       52.34795
O         48.04180       61.79244       51.39852
H         51.80412       61.91224       50.38001
H         49.45715       61.16042       48.81524
H         48.59423       63.42573       49.56693
H         50.20368       63.83788       50.19793
H         50.90372       62.78672       52.26863
H         49.72031       61.89833       53.24072
N         49.47709       63.33075       47.00208
C         49.74700       64.16650       45.83953
C         50.38527       65.48847       46.26433
O         51.32075       65.92617       45.60938
C         48.46014       64.40141       45.03337
C         48.76057       65.09401       43.72494
C         49.59454       64.48323       42.76693
C         48.21687       66.35660       43.45227
C         49.89070       65.13540       41.56841
C         48.51351       67.00660       42.25122
C         49.35628       66.40009       41.30769
O         49.66013       67.02295       40.15187
H         48.49921       63.18898       47.29601
H         50.44109       63.61180       45.17093
H         47.74210       64.98334       45.65111
H         47.99427       63.41943       44.79746
H         50.02221       63.50407       42.94460
H         47.57031       66.84100       44.17255
H         50.54003       64.65790       40.84444
H         48.09095       67.98354       42.05811
H         49.32418       67.90563       39.94153
N         49.95840       66.15871       47.38115
C         50.62771       67.36497       47.88556
C         52.08803       67.11764       48.28677
O         52.79653       68.08780       48.51899
C         49.86458       68.01264       49.06748
C         49.70219       67.09312       50.29704
C         49.10403       67.80040       51.48555
O         48.82143       68.98831       51.44455
O         48.89096       67.11090       52.62214
H         49.14577       65.78289       47.88800
H         50.63412       68.10889       47.05727
H         48.85664       68.33363       48.72480
H         50.42380       68.92709       49.36920
H         50.68954       66.69425       50.60689
H         49.03926       66.24084       50.04301
N         52.61336       65.86021       48.34678
C         54.02556       65.56700       48.55864
C         54.67328       65.25529       47.20888
O         55.82237       65.62156       47.00750
C         54.20719       64.42010       49.58844
C         53.54804       64.75796       50.94342
C         53.75982       63.71715       52.01860
O         54.20824       64.07676       53.23320
O         53.46368       62.55418       51.83459
H         52.00043       65.06118       48.17056
H         54.54963       66.46414       48.95830
H         55.29366       64.23631       49.73324
H         53.74248       63.49223       49.18950
H         52.45613       64.86141       50.78250
H         53.94332       65.72601       51.31480
N         53.96461       64.66459       46.20316
C         54.46672       64.47616       44.86150
H         55.39707       63.87628       44.87547
H         53.70268       63.94040       44.25296
H         54.64650       65.46333       44.38399
H         53.00812       64.35660       46.36700
Ca        54.15538       61.38998       54.91815
O         51.57477       63.32173       54.73242
H         51.16039       63.52479       55.60687
H         51.32082       64.08668       54.15776

Ca 1.0



