%chk=holoCaM-CaMKII.loop3.water2.frame423.chk
%nprocshared=20
%mem=10GB
%nosave
#b3lyp/svp scf=(tight,noincore,xqc) Test 
#IOP(5/87=12) Density=Current Pop=(MK,readradii) iop(6/33=2) iop(6/42=6)

holoCaM-CaMKII.loop3.water2.frame423 

   0  1 
C         57.69795       68.40057       41.41032
C         57.40460       67.42709       42.51626
O         57.94963       66.33272       42.50740
H         58.77722       68.66012       41.41655
H         57.43384       67.94787       40.43257
H         57.11352       69.33812       41.53068
N         56.56518       67.77630       43.52793
C         56.24697       66.89797       44.64497
C         55.40010       65.71604       44.17480
O         54.40807       65.92126       43.48970
C         55.56753       67.71475       45.75991
C         55.34655       66.86222       46.96528
O         54.22918       66.70311       47.39837
O         56.35801       66.19839       47.53457
H         56.16364       68.72712       43.52129
H         57.19637       66.52701       45.08803
H         54.60385       68.13857       45.40054
H         56.23890       68.55036       46.05315
N         55.75476       64.44296       44.51512
C         55.10073       63.23314       44.01202
C         53.60194       63.20518       44.28612
O         52.84348       63.01544       43.34547
C         55.79536       61.98057       44.60819
C         55.43926       60.67581       43.87118
C         56.24984       59.49279       44.43051
C         56.07777       58.23038       43.57115
N         56.87996       57.12387       44.09607
H         56.56860       64.32763       45.13928
H         55.26200       63.20322       42.91068
H         55.57231       61.89408       45.69390
H         56.89361       62.11259       44.49075
H         55.70439       60.80812       42.79921
H         54.35148       60.45710       43.94386
H         55.93676       59.28933       45.47822
H         57.33028       59.75685       44.42882
H         56.41010       58.45178       42.53172
H         55.00754       57.92995       43.54023
H         57.89014       57.39412       44.13428
H         56.54948       56.86177       45.05284
H         56.78033       56.29641       43.46420
N         53.10607       63.38457       45.54442
C         51.68131       63.26953       45.87593
C         51.03948       64.58901       46.28980
O         49.86059       64.58016       46.61833
C         51.49050       62.18709       46.96570
C         52.13320       62.47718       48.30158
O         52.73930       63.51523       48.50867
O         52.02407       61.57178       49.29160
H         53.77576       63.59944       46.29678
H         51.10628       62.92977       44.98744
H         51.90454       61.23107       46.58110
H         50.40294       62.03958       47.14313
N         51.72536       65.76415       46.27514
C         51.13068       67.03425       46.66114
C         50.64644       67.01676       48.09503
O         49.46041       67.21506       48.31623
H         52.69616       65.76933       45.94397
H         50.28409       67.26144       45.97698
H         51.88203       67.84687       46.54748
N         51.51872       66.80622       49.12178
C         51.13802       66.79808       50.52871
C         51.75603       67.96502       51.28486
O         51.50049       68.07609       52.47626
C         51.52719       65.45162       51.18409
C         53.01890       65.27550       51.40258
N         53.50984       65.08224       52.65042
O         53.78854       65.30209       50.45549
H         52.50509       66.66361       48.89955
H         50.03426       66.89874       50.61497
H         51.13482       64.61738       50.56414
H         51.02049       65.39275       52.17170
H         52.88507       65.04616       53.46868
H         54.52110       64.95994       52.80335
N         52.56213       68.88121       50.66860
C         53.15607       70.00554       51.36377
C         54.64959       70.01528       51.18389
O         55.15087       70.98861       50.63645
H         52.75522       68.81391       49.65903
H         52.92409       69.99948       52.44879
H         52.73203       70.94045       50.93402
N         55.43347       68.98210       51.62223
C         56.88925       69.00753       51.48840
C         57.39869       67.91260       50.57340
O         56.62865       67.04889       50.17623
C         57.57317       68.96214       52.87414
C         57.54035       67.62159       53.58352
C         58.61094       66.72730       53.41234
C         56.49825       67.27053       54.45807
C         58.64434       65.50762       54.08876
C         56.53464       66.04689       55.14399
C         57.60691       65.16370       54.96279
O         57.63563       63.99568       55.63681
H         54.98510       68.16520       52.06578
H         57.19511       69.96625       51.01763
H         57.16322       69.75692       53.53407
H         58.64176       69.23378       52.73498
H         59.42662       66.97890       52.75675
H         55.66940       67.94645       54.62299
H         59.48140       64.83654       53.93719
H         55.73466       65.78749       55.82581
H         58.36884       63.36888       55.54798
N         58.70559       67.91821       50.17843
C         59.31111       66.89706       49.32615
C         60.51651       66.28564       50.03975
O         61.06284       66.91076       50.93975
C         59.64315       67.50092       47.92048
C         60.06941       66.40805       46.90677
C         60.68347       68.63608       48.00816
C         60.23768       66.92292       45.47419
H         59.29921       68.69754       50.49991
H         58.56956       66.08332       49.17060
H         58.69513       67.94007       47.53482
H         59.27590       65.62954       46.88276
H         61.02480       65.93748       47.21248
H         60.34037       69.44187       48.68627
H         61.65982       68.24965       48.36787
H         60.83060       69.12000       47.02241
H         61.08755       67.62993       45.39368
H         60.44735       66.06757       44.79903
H         59.31445       67.42704       45.12544
N         60.96574       65.04457       49.71021
C         62.08441       64.37615       50.36708
C         63.17810       64.08965       49.35914
O         63.03375       64.45562       48.20201
C         61.58990       63.07685       51.02722
O         61.13914       62.16864       50.05687
H         60.48648       64.53474       48.95936
H         62.51446       65.01513       51.16900
H         60.78676       63.32339       51.76232
H         62.40376       62.59168       51.60512
H         60.18405       61.98470       50.24558
N         64.31653       63.44277       49.72442
C         65.37203       63.12971       48.77126
C         64.88194       62.16376       47.70282
O         64.95535       62.49825       46.52933
C         66.58795       62.53689       49.49075
H         64.44104       63.17714       50.71422
H         65.71222       64.07512       48.29012
H         67.39874       62.33184       48.75926
H         66.97017       63.26304       50.23969
H         66.32700       61.59327       50.01443
N         64.39656       60.93226       48.03855
C         64.02066       59.92945       47.04325
C         62.89226       60.38055       46.13282
O         62.87950       59.96768       44.98107
C         63.66094       58.60019       47.71251
H         64.34177       60.68275       49.03812
H         64.91270       59.73522       46.40675
H         64.52298       58.24170       48.31601
H         62.77955       58.71750       48.37761
H         63.43678       57.83013       46.94292
N         61.90955       61.21926       46.56447
C         60.87517       61.73204       45.66787
C         61.52763       62.61681       44.61852
O         61.36913       62.35282       43.43539
C         59.80601       62.51275       46.45115
C         59.00074       61.58771       47.39103
C         58.02871       62.39949       48.18573
O         56.70589       62.18468       48.12937
O         58.43384       63.32226       48.86980
H         61.91892       61.52668       47.54891
H         60.34936       60.88914       45.16556
H         59.09352       62.98922       45.74026
H         60.30425       63.31939       47.02799
H         59.67708       61.06266       48.09284
H         58.45362       60.82699       46.79278
N         62.31873       63.66017       44.99596
C         63.03859       64.51346       44.07279
H         64.12915       64.41038       44.25916
H         62.83732       64.25620       43.01279
H         62.75468       65.57182       44.24462
H         62.45022       63.84232       45.99590
Ca        55.76106       64.19086       48.33638
O         57.17963       64.32876       51.41690
H         56.72036       65.06606       51.89013
H         57.16974       63.57929       52.06317
O         54.78067       62.46878       51.05727
H         54.57865       61.73624       50.42343
H         54.85160       62.02494       51.93940

Ca 1.0



