%chk=holoCaM-CaMKII.loop2.water1.frame45.chk
%nprocshared=20
%mem=10GB
%nosave
#b3lyp/svp scf=(tight,noincore,xqc) Test 
#IOP(5/87=12) Density=Current Pop=(MK,readradii) iop(6/33=2) iop(6/42=6)

holoCaM-CaMKII.loop2.water1.frame45 

   -2  1 
C         -1.88494       69.65296        5.44238
C         -3.20024       70.29645        5.09744
O         -3.34614       70.79972        3.99346
H         -1.06705       70.39978        5.38945
H         -1.90008       69.21906        6.46580
H         -1.67715       68.82943        4.72617
N         -4.22090       70.28624        5.99639
C         -5.55718       70.79409        5.71021
C         -5.58624       72.29706        5.47080
O         -5.13443       73.04697        6.32504
C         -6.49954       70.45122        6.87759
C         -7.90256       70.87463        6.56972
O         -8.52208       71.77480        7.35439
O         -8.47381       70.42236        5.59121
H         -4.05437       69.83698        6.91088
H         -5.94483       70.26199        4.81833
H         -6.15107       70.95202        7.80743
H         -6.49650       69.35275        7.04806
N         -6.19988       72.79772        4.35682
C         -6.39061       74.22148        4.10024
C         -7.87176       74.61922        4.04513
O         -8.13259       75.80070        3.86489
C         -5.70181       74.57998        2.77921
H         -6.57979       72.13650        3.66566
H         -5.92324       74.82607        4.90723
H         -5.79876       75.66628        2.56734
H         -4.62059       74.33181        2.83569
H         -6.15416       74.01039        1.93807
N         -8.89088       73.71319        4.17381
C        -10.31132       74.06387        4.08022
C        -11.08916       73.66631        5.33651
O        -11.70525       74.54907        5.91810
C        -10.92113       73.53295        2.76159
C        -10.51220       72.14707        2.37429
O         -9.84066       71.98380        1.36681
O        -10.85255       71.07660        3.09857
H         -8.66584       72.71865        4.30149
H        -10.44082       75.16654        3.99570
H        -10.53876       74.19243        1.95033
H        -12.02786       73.63106        2.76860
N        -11.10503       72.39407        5.83318
C        -11.83383       72.01063        7.04213
C        -12.79838       70.85196        6.84092
O        -13.43132       70.46148        7.81180
H        -10.54138       71.67421        5.37294
H        -12.40777       72.86680        7.45679
H        -11.09733       71.69959        7.81177
N        -12.97097       70.24641        5.63060
C        -13.89953       69.13889        5.39300
C        -13.53359       67.82514        6.11181
O        -14.28828       66.87274        5.96886
C        -14.05643       68.90778        3.86618
C        -12.80665       68.43995        3.16431
N        -12.81562       68.23133        1.82864
O        -11.78027       68.25155        3.79358
H        -12.46705       70.62502        4.82308
H        -14.90196       69.45849        5.75468
H        -14.37596       69.86554        3.39842
H        -14.85713       68.15948        3.68604
H        -13.66778       68.39650        1.27451
H        -11.96583       67.90639        1.34630
N        -12.43144       67.69265        6.91301
C        -12.13652       66.48624        7.68223
C        -11.38707       65.40142        6.92096
O        -11.08358       64.38627        7.53093
H        -11.82276       68.50244        7.07974
H        -13.07543       66.08182        8.12319
H        -11.48466       66.77301        8.53452
N        -11.05857       65.52888        5.60466
C        -10.36981       64.50739        4.81770
C         -9.16847       65.08527        4.08468
O         -9.31010       66.09856        3.41605
C        -11.34480       63.91711        3.77525
C        -12.46016       63.12402        4.45533
O        -11.92081       64.92976        2.98712
H        -11.35647       66.37168        5.10976
H        -10.02661       63.66019        5.45309
H        -10.79523       63.18938        3.13060
H        -11.30229       65.10536        2.23151
H        -12.02520       62.29906        5.06064
H        -13.06497       63.77792        5.11785
H        -13.12512       62.68047        3.68564
N         -7.96632       64.43805        4.09515
C         -6.84226       64.85925        3.25732
C         -7.24108       64.67854        1.79108
O         -7.64945       63.58786        1.41602
C         -5.53404       64.05865        3.56683
C         -5.15017       64.17038        5.06898
C         -4.38013       64.59383        2.69112
C         -3.88555       63.39222        5.44652
H         -7.87649       63.58320        4.66263
H         -6.61100       65.92487        3.47644
H         -5.69814       62.98614        3.31983
H         -5.96598       63.75609        5.69297
H         -5.01129       65.23711        5.34987
H         -4.16613       65.65643        2.93565
H         -3.45505       64.00425        2.82981
H         -4.62512       64.51518        1.61747
H         -2.98338       63.81690        4.96167
H         -3.72656       63.45880        6.54291
H         -3.98982       62.32291        5.16500
N         -7.10716       65.70181        0.90285
C         -7.45108       65.60961       -0.51840
C         -6.19002       65.34962       -1.31315
O         -5.13889       65.21553       -0.71133
C         -8.06071       66.94412       -0.99977
C         -9.17684       67.43675       -0.14119
O        -10.24336       67.77758       -0.62686
O         -8.92422       67.63405        1.16102
H         -6.66955       66.57149        1.23446
H         -8.17293       64.78227       -0.69600
H         -8.39768       66.87485       -2.05635
H         -7.27078       67.72673       -0.94022
N         -6.19492       65.26780       -2.67119
C         -4.95879       65.08502       -3.41937
C         -3.99143       66.26776       -3.23416
O         -2.86035       66.00264       -2.85284
C         -5.22310       64.80807       -4.91173
C         -3.93368       64.42197       -5.60184
C         -3.38667       65.23553       -6.60658
C         -3.25527       63.24522       -5.22692
C         -2.17773       64.88296       -7.21636
C         -2.04995       62.89710       -5.83935
C         -1.50974       63.71641       -6.83207
H         -7.09115       65.32784       -3.17923
H         -4.47738       64.16512       -3.01925
H         -5.68375       65.69416       -5.38750
H         -5.94074       63.96595       -5.02110
H         -3.88726       66.14675       -6.90832
H         -3.65585       62.59572       -4.45844
H         -1.75550       65.51680       -7.98450
H         -1.53428       61.99308       -5.54070
H         -0.57330       63.44660       -7.30237
N         -4.32841       67.58669       -3.45496
C         -3.38906       68.70405       -3.32044
C         -2.96627       69.00855       -1.88354
O         -2.20564       69.94819       -1.69563
C         -4.14016       69.87822       -3.95858
C         -5.57284       69.56338       -3.60260
C         -5.63221       68.06396       -3.87691
H         -2.46460       68.52558       -3.91247
H         -3.77755       70.89053       -3.67749
H         -4.06342       69.78086       -5.06602
H         -5.69136       69.73069       -2.50702
H         -6.34242       70.15778       -4.13922
H         -6.47558       67.65350       -3.29628
H         -5.75779       67.86229       -4.96089
N         -3.35837       68.23601       -0.83592
C         -2.89029       68.40525        0.53279
C         -1.87703       67.31187        0.83084
O         -0.78761       67.62923        1.28613
C         -4.08737       68.36598        1.49789
C         -5.06046       69.52729        1.22852
C         -6.27782       69.49421        2.10722
O         -7.12686       70.35990        1.97850
O         -6.45732       68.52326        3.02397
H         -3.98293       67.44308       -1.00864
H         -2.37372       69.38159        0.67558
H         -3.72362       68.43291        2.54685
H         -4.61275       67.40004        1.37178
H         -5.40960       69.48720        0.17510
H         -4.53153       70.49171        1.39230
N         -2.13766       66.01052        0.51948
C         -1.18729       64.92978        0.67284
H         -0.24259       65.25986        1.14961
H         -1.63793       64.12407        1.28575
H         -0.95049       64.51374       -0.33059
H         -3.03560       65.76590        0.09868
Ca        -9.79602       69.29759        2.30936
O         -9.27213       67.83182        6.09691
H         -9.36414       68.20999        7.00726
H         -8.31771       67.58034        6.02528

Ca 1.0



