%chk=holoCaM-CaMKII.loop4.water2.frame130.chk
%nprocshared=20
%mem=10GB
%nosave
#b3lyp/svp scf=(tight,noincore,xqc) Test 
#IOP(5/87=12) Density=Current Pop=(MK,readradii) iop(6/33=2) iop(6/42=6)

holoCaM-CaMKII.loop4.water2.frame130 

   -3  1 
C         42.20211       30.23408       76.17322
C         42.49568       29.52124       77.45523
O         43.56528       29.70659       78.01712
H         41.30417       30.87366       76.30901
H         43.05805       30.87414       75.87335
H         42.00404       29.49053       75.37347
N         41.56206       28.69007       77.98867
C         41.74941       28.00252       79.25638
C         42.91544       27.02439       79.16749
O         42.85671       26.07670       78.39631
C         40.44512       27.28808       79.63517
C         40.46236       26.67611       80.99420
O         39.46561       26.10030       81.37683
O         41.53203       26.76955       81.80512
H         40.66734       28.58008       77.48484
H         41.94619       28.77728       80.03308
H         40.21828       26.50002       78.88402
H         39.61546       28.02882       79.62805
N         44.03125       27.23659       79.91584
C         45.23468       26.41280       79.83915
C         45.06087       25.15749       80.69564
O         45.29935       24.06004       80.21304
C         46.49480       27.24400       80.27285
C         46.61171       28.54431       79.41782
C         47.77435       26.39411       80.13921
C         47.80357       29.43972       79.76908
H         44.04739       28.07288       80.51538
H         45.42623       26.13117       78.77825
H         46.39428       27.53319       81.33907
H         45.70877       29.16740       79.56959
H         46.67065       28.28889       78.33767
H         47.94155       26.10469       79.07972
H         48.66245       26.94899       80.50420
H         47.70832       25.47688       80.75858
H         47.79402       29.70416       80.84490
H         48.76639       28.94970       79.52415
H         47.74663       30.37594       79.17257
N         44.67201       25.27236       81.99743
C         44.67844       24.17879       82.98151
C         43.35648       23.40589       83.10089
O         43.30013       22.48526       83.90470
C         45.15871       24.74112       84.34348
C         44.26332       25.82313       84.89158
O         44.63971       26.50561       85.83096
O         43.09906       26.11073       84.27667
H         44.49180       26.22970       82.32797
H         45.44714       23.43262       82.67978
H         46.16129       25.19321       84.16412
H         45.28411       23.93602       85.09805
N         42.28602       23.66169       82.29633
C         41.08565       22.83053       82.25021
C         40.17050       22.90656       83.46106
O         39.87229       21.87134       84.03965
H         42.36228       24.40639       81.59184
H         41.38460       21.77491       82.06139
H         40.47378       23.15672       81.38311
N         39.63190       24.09527       83.85441
C         38.62317       24.24519       84.90580
C         37.38885       25.04403       84.43689
O         36.57840       25.40073       85.28195
C         39.26811       24.87749       86.15667
C         39.98409       26.16620       85.89990
O         39.39861       27.11640       85.42019
O         41.27965       26.28674       86.23574
H         39.96525       24.94913       83.39279
H         38.24555       23.25668       85.25077
H         40.00413       24.15804       86.57561
H         38.48809       25.04099       86.93159
N         37.13604       25.31442       83.11986
C         35.96148       26.05541       82.65928
C         36.00369       27.56346       82.90470
O         35.02324       28.21983       82.58852
H         37.74260       24.90126       82.40266
H         35.05226       25.61545       83.12498
H         35.86326       25.92804       81.55919
N         37.09174       28.18312       83.44458
C         37.19782       29.62552       83.69027
C         38.46553       30.18891       83.06334
O         39.44858       29.47081       82.95173
C         37.20486       29.88624       85.20882
C         35.78158       29.80420       85.78705
C         35.72674       30.00926       87.28103
N         34.52682       30.11246       87.89763
O         36.75312       30.08972       87.94077
H         37.89470       27.60438       83.70137
H         36.34181       30.18348       83.25091
H         37.57246       30.91508       85.41764
H         37.88707       29.16633       85.70761
H         35.30786       28.82905       85.54612
H         35.18602       30.61465       85.31077
H         33.65197       30.06879       87.35405
H         34.47060       30.25644       88.91665
N         38.51110       31.49944       82.65731
C         39.68648       32.10034       82.02698
C         40.21319       33.23246       82.90527
O         39.52963       34.23000       83.08522
C         39.34372       32.61966       80.60044
C         40.61399       33.07892       79.86208
C         38.63204       31.54811       79.75895
H         37.67623       32.09072       82.78635
H         40.47875       31.32795       81.91759
H         38.64616       33.48293       80.68605
H         41.13249       33.88473       80.42042
H         41.31728       32.22717       79.73185
H         40.35309       33.47543       78.85751
H         38.38691       31.95409       78.75371
H         39.26878       30.64660       79.64057
H         37.67224       31.25315       80.23424
N         41.42658       33.11162       83.51202
C         42.00944       34.11482       84.40752
C         42.58833       35.27220       83.58465
O         42.61530       35.17893       82.36611
C         43.09701       33.38256       85.25813
C         43.64587       34.07071       86.49441
N         43.45510       33.53067       87.72167
O         44.31250       35.08426       86.40141
H         41.92803       32.22592       83.38045
H         41.21433       34.46547       85.10140
H         43.94226       33.08804       84.60153
H         42.62234       32.44388       85.61829
H         42.92413       32.65714       87.84627
H         43.85441       33.98534       88.55667
N         43.09737       36.38619       84.18439
C         43.86092       37.41213       83.47053
C         45.13390       36.80828       82.89056
O         45.44141       37.06411       81.73586
C         44.25673       38.55460       84.43207
C         45.03503       39.64199       83.71959
C         44.42960       40.41336       82.71135
C         46.37839       39.88664       84.05278
C         45.15533       41.41007       82.05054
C         47.10326       40.88002       83.38695
C         46.49305       41.64620       82.38355
O         47.18011       42.60808       81.73441
H         42.96306       36.49857       85.19627
H         43.23681       37.84737       82.65858
H         44.86655       38.12565       85.25774
H         43.34775       39.00509       84.88536
H         43.39549       40.24660       82.43771
H         46.86963       39.30235       84.82072
H         44.67751       41.99902       81.27735
H         48.13920       41.05196       83.65080
H         48.10738       42.80212       81.93321
N         45.93661       36.01073       83.65427
C         47.16814       35.39419       83.16966
C         46.92768       34.36759       82.05715
O         47.90636       33.89225       81.50262
C         47.94090       34.70591       84.32317
C         48.32083       35.67991       85.45793
C         49.15359       35.03630       86.53623
O         49.47916       33.86055       86.47359
O         49.55007       35.77531       87.58966
H         45.65779       35.85048       84.62658
H         47.81551       36.20314       82.76292
H         48.88236       34.28103       83.90893
H         47.33163       33.87190       84.73909
H         47.40763       36.08322       85.94111
H         48.89964       36.52789       85.03479
N         45.67043       33.98690       81.66972
C         45.40621       33.05213       80.57624
C         44.75496       33.75510       79.39012
O         44.63152       33.12968       78.34433
C         44.51707       31.89134       81.07431
C         45.16802       31.17905       82.26458
C         44.37194       30.01304       82.76159
O         44.87819       28.90439       82.76830
O         43.14052       30.16587       83.28191
H         44.85833       34.36662       82.15845
H         46.36561       32.63450       80.19983
H         44.36399       31.16629       80.24493
H         43.52294       32.28617       81.37994
H         45.29850       31.88299       83.10979
H         46.17049       30.82301       81.95699
N         44.33492       35.05034       79.46229
C         43.79315       35.80304       78.35360
H         42.75792       36.12061       78.59661
H         44.41468       36.71290       78.20426
H         43.78796       35.22269       77.40949
H         44.38935       35.55663       80.34649
Ca        42.38886       28.23118       84.13017
O         40.44873       29.69185       86.45553
H         40.22562       30.49169       86.99294
H         40.09021       28.93911       86.98834
O         43.87313       29.71661       86.20180
H         43.32246       29.88897       87.00595
H         44.29265       30.58838       85.99253

Ca 1.0



