%chk=holoCaM-CaMKII.loop3.water1.frame332.chk
%nprocshared=20
%mem=10GB
%nosave
#b3lyp/svp scf=(tight,noincore,xqc) Test 
#IOP(5/87=12) Density=Current Pop=(MK,readradii) iop(6/33=2) iop(6/42=6)

holoCaM-CaMKII.loop3.water1.frame332 

   0  1 
C         15.18241       52.31867       63.08154
C         14.16537       51.66502       63.96805
O         12.99331       51.94706       63.80216
H         16.21071       51.97455       63.31723
H         14.95854       52.08348       62.02041
H         15.13798       53.41916       63.22805
N         14.54386       50.76003       64.91414
C         13.63684       50.11071       65.86307
C         13.23795       51.11838       66.95343
O         13.77816       51.05757       68.04941
C         14.37741       48.88890       66.46767
C         13.61565       47.99679       67.42484
O         12.26604       47.91720       67.48546
O         14.26593       47.24042       68.12743
H         15.54322       50.50464       64.94632
H         12.76777       49.71226       65.31366
H         15.27188       49.27342       67.00575
H         14.75433       48.23405       65.65150
N         12.35209       52.12468       66.70020
C         12.07871       53.21128       67.64246
C         11.35897       52.75809       68.90983
O         11.25118       53.57219       69.81701
C         11.25498       54.33958       66.96732
C         11.98453       54.96134       65.75692
C         11.15983       56.02831       65.01925
C         10.89114       57.28769       65.85684
N         10.16895       58.28732       65.06938
H         11.89826       52.15053       65.78507
H         13.05804       53.64681       67.94365
H         11.07031       55.13953       67.71498
H         10.27296       53.93305       66.64197
H         12.20218       54.17423       65.00979
H         12.95414       55.39667       66.08280
H         10.19859       55.58456       64.67795
H         11.73712       56.33192       64.11834
H         11.86060       57.71953       66.19139
H         10.28813       57.03455       66.75424
H         10.72961       58.55899       64.22891
H          9.24332       57.90603       64.76616
H         10.00954       59.13773       65.65635
N         10.82135       51.50962       69.04952
C         10.13322       51.06684       70.26260
C         10.82105       49.86601       70.91480
O         10.34963       49.42335       71.95344
C          8.63415       50.84921       69.96612
C          8.35506       49.87357       68.86239
O          7.77541       50.23696       67.85162
O          8.70727       48.58890       68.99405
H         10.87394       50.84524       68.26422
H         10.16073       51.86224       71.03960
H          8.20368       51.83335       69.67645
H          8.11109       50.51476       70.88818
N         11.98632       49.34606       70.42583
C         12.77589       48.34396       71.12423
C         12.18572       46.95249       71.16968
O         12.81934       46.10219       71.78007
H         12.40622       49.74437       69.58037
H         12.96773       48.70120       72.15955
H         13.76189       48.25228       70.61940
N         11.01176       46.61425       70.56009
C         10.47363       45.25772       70.64331
C         11.36767       44.22983       69.95873
O         11.18277       43.04627       70.20627
C          9.04948       45.16069       70.05864
C          9.03328       45.25785       68.54913
N          8.57569       44.22931       67.80341
O          9.45199       46.25848       67.99062
H         10.48047       47.33558       70.06307
H         10.40367       45.01802       71.72865
H          8.40474       45.95043       70.50094
H          8.62138       44.17903       70.35855
H          8.22774       43.36286       68.23970
H          8.57925       44.30516       66.77893
N         12.31234       44.60448       69.04474
C         13.19420       43.66606       68.37498
C         13.04145       43.64216       66.86378
O         13.77925       42.87974       66.25496
H         12.42496       45.59852       68.81090
H         13.03338       42.63104       68.74342
H         14.24187       43.94672       68.62066
N         12.15316       44.42597       66.17086
C         12.07449       44.38297       64.70790
C         11.59369       45.69219       64.09537
O         10.59540       46.24900       64.52831
C         11.30518       43.14092       64.17606
C          9.81092       43.07682       64.43603
C          8.92298       44.00221       63.85234
C          9.27886       42.04251       65.22736
C          7.54907       43.92250       64.08827
C          7.89932       41.95429       65.44998
C          7.03163       42.89848       64.89064
O          5.70709       42.81047       65.12622
H         11.56199       45.09799       66.67899
H         13.11120       44.24475       64.32721
H         11.79646       42.24116       64.60529
H         11.44730       43.08375       63.07468
H          9.27718       44.78513       63.20074
H          9.92925       41.29972       65.67137
H          6.88844       44.65466       63.63997
H          7.50508       41.15342       66.06211
H          5.07752       43.45104       64.76475
N         12.27335       46.21759       63.03623
C         11.85751       47.40107       62.28600
C         10.58112       47.09184       61.50706
O         10.52955       46.06963       60.83712
C         12.98314       47.83933       61.28923
C         14.29297       48.17343       62.05713
C         12.52580       49.05821       60.45724
C         15.47236       48.51617       61.14417
H         13.11564       45.71757       62.71577
H         11.70135       48.25549       62.98255
H         13.18528       46.99780       60.58851
H         14.61554       47.29986       62.65796
H         14.11609       49.01581       62.75751
H         12.30099       49.92352       61.11779
H         13.28573       49.35734       59.71088
H         11.62603       48.81048       59.86560
H         15.66594       47.68071       60.43780
H         15.29411       49.44953       60.57477
H         16.38013       48.67675       61.76221
N          9.56386       48.00050       61.45845
C          8.36926       47.84395       60.62562
C          8.39525       48.84245       59.47392
O          9.32326       49.62398       59.38956
C          7.11533       48.03521       61.49309
O          7.10307       49.32536       62.04182
H          9.67682       48.88378       61.97463
H          8.33728       46.82905       60.17400
H          7.12792       47.27877       62.30902
H          6.20209       47.88863       60.87580
H          6.31304       49.36891       62.63992
N          7.41456       48.85627       58.52588
C          7.38964       49.80870       57.41312
C          7.24615       51.23312       57.91365
O          8.02265       52.08807       57.51039
C          6.22921       49.49521       56.46375
H          6.66031       48.15697       58.59365
H          8.32446       49.71382       56.81482
H          5.25234       49.56681       56.98632
H          6.23438       50.21094       55.61213
H          6.34655       48.47030       56.05273
N          6.27715       51.54644       58.81979
C          6.06392       52.88531       59.36376
C          7.34647       53.46174       59.92446
O          7.72399       54.56363       59.55178
C          5.00285       52.82950       60.47347
H          5.68013       50.77816       59.16498
H          5.69056       53.55840       58.56066
H          5.33029       52.15933       61.29907
H          4.82412       53.84289       60.89172
H          4.04467       52.44125       60.06839
N          8.07923       52.74360       60.81262
C          9.32435       53.21526       61.40589
C         10.35674       53.53283       60.33296
O         10.90990       54.62371       60.35017
C          9.85118       52.18062       62.42181
C          8.85309       52.01194       63.58881
C          9.37143       51.10662       64.65933
O          9.67301       49.82425       64.40056
O          9.51294       51.53212       65.79287
H          7.73318       51.80504       61.05935
H          9.13276       54.15036       61.97888
H         10.80720       52.56090       62.83274
H         10.04364       51.20653       61.92170
H          7.88690       51.60159       63.23802
H          8.66161       53.01124       64.03809
N         10.62656       52.65107       59.33513
C         11.56162       52.93332       58.26797
H         12.58503       53.05037       58.67990
H         11.56325       52.09582       57.53650
H         11.26258       53.86059       57.73335
H         10.12025       51.76496       59.30652
Ca        10.71642       48.76725       66.08626
O          7.24960       47.28713       65.89699
H          6.66964       46.73296       66.47786
H          6.62325       47.73168       65.27196

Ca 1.0



