%chk=holoCaM.loop4.water3.frame221.chk
%nprocshared=20
%mem=10GB
%nosave
#b3lyp/svp scf=(tight,noincore,xqc) Test 
#IOP(5/87=12) Density=Current Pop=(MK,readradii) iop(6/33=2) iop(6/42=6)

holoCaM.loop4.water3.frame221 

   -3  1 
C         45.58062       46.08134        9.73223
C         45.95773       45.02483       10.72559
O         45.20680       44.80505       11.66443
H         44.61280       46.55337       10.00998
H         46.36660       46.86053        9.68395
H         45.46154       45.61217        8.73169
N         47.09318       44.28945       10.54659
C         47.43235       43.14294       11.37691
C         48.83850       43.21258       11.96929
O         49.80143       43.44065       11.25167
C         47.27481       41.86964       10.53487
C         47.53583       40.65948       11.37582
O         48.38859       39.85060       11.04835
O         46.85538       40.49534       12.52520
H         47.68669       44.48860        9.72665
H         46.70200       43.04666       12.21040
H         47.95378       41.88490        9.65529
H         46.22787       41.81382       10.16646
N         49.00723       42.86788       13.27851
C         50.28401       42.72404       13.97848
C         50.50874       41.25000       14.34231
O         51.59893       40.73889       14.12926
C         50.26635       43.54348       15.31485
C         49.93639       45.03684       15.08578
C         51.60664       43.39195       16.07354
C         49.68123       45.79410       16.39836
H         48.15790       42.63731       13.80577
H         51.12953       43.08450       13.34977
H         49.46325       43.12132       15.95632
H         49.00691       45.10989       14.48848
H         50.74816       45.53291       14.51238
H         51.57593       43.88793       17.06299
H         51.83593       42.32779       16.28572
H         52.44059       43.82256       15.47952
H         49.37048       46.83594       16.17743
H         48.86763       45.30229       16.97562
H         50.58781       45.84546       17.03312
N         49.52613       40.54961       14.98187
C         49.72098       39.30763       15.73728
C         49.21817       38.02964       15.07065
O         49.43167       36.96644       15.63813
C         49.02440       39.47797       17.11298
C         47.51356       39.70019       17.01570
O         46.89181       39.71085       15.80633
O         46.87609       39.90857       18.03310
H         48.62982       41.02750       15.09098
H         50.81201       39.15656       15.89988
H         49.47852       40.36214       17.61431
H         49.22627       38.58995       17.74941
N         48.56966       38.03368       13.87818
C         48.16234       36.82269       13.17836
C         47.07131       35.98203       13.83158
O         46.74752       34.96081       13.24068
H         48.42706       38.92878       13.40536
H         49.06073       36.18374       13.03127
H         47.78955       37.10805       12.17142
N         46.45656       36.29487       15.01456
C         45.44390       35.41132       15.60909
C         44.17165       35.27603       14.76804
O         43.38212       34.38596       15.05231
C         45.09625       35.81324       17.06585
C         44.52197       37.19133       17.25220
O         44.40189       37.95653       16.31546
O         44.15681       37.59600       18.48281
H         46.74429       37.13891       15.52479
H         45.89938       34.39812       15.67037
H         46.01641       35.75421       17.68346
H         44.36415       35.08036       17.46923
N         43.89259       36.12843       13.74375
C         42.71973       36.02686       12.88885
C         41.76627       37.18619       13.08862
O         40.87077       37.34031       12.27007
H         44.52988       36.91054       13.56288
H         42.14998       35.08605       13.05175
H         43.07664       36.01699       11.83571
N         41.84387       37.99475       14.18881
C         40.92328       39.09094       14.45969
C         41.70365       40.40490       14.74552
O         42.76901       40.52328       13.84349
C         40.05105       38.72637       15.67929
C         39.19874       37.46637       15.44444
C         38.32077       37.13398       16.62979
N         37.49484       36.06453       16.57804
O         38.34516       37.82461       17.63906
H         42.54605       37.79498       14.90453
H         40.26077       39.25748       13.57993
H         39.35250       39.55459       15.90913
H         40.71049       38.56701       16.56129
H         39.85843       36.59515       15.24299
H         38.54582       37.63045       14.55949
H         37.45576       35.46977       15.73764
H         36.89052       35.83235       17.38044
N         40.79374       41.55803       14.57806
C         41.39080       42.88774       14.80014
C         41.34237       43.26701       16.28067
O         40.25986       43.36168       16.84309
C         40.62166       43.94175       13.94885
C         41.28125       45.32755       14.03653
C         40.54396       43.53051       12.46870
H         39.89563       41.46787       15.10178
H         42.44084       42.88474       14.43705
H         39.57795       44.01909       14.32744
H         42.31603       45.29007       13.63446
H         40.70195       46.06991       13.44797
H         41.31424       45.68758       15.08071
H         41.55795       43.44091       12.02763
H         40.01474       42.56160       12.35323
H         39.97337       44.29034       11.89226
N         42.49198       43.51846       16.96458
C         42.53954       43.93755       18.36955
C         41.95508       45.34843       18.51768
O         41.70991       46.00244       17.51353
C         44.04306       43.95826       18.78882
C         44.43995       44.08187       20.24030
N         45.75043       44.22562       20.54858
O         43.61917       44.02194       21.13893
H         43.37757       43.39053       16.45671
H         41.98049       43.18953       18.97329
H         44.51220       44.79369       18.23852
H         44.52869       43.02227       18.45277
H         46.46350       44.26161       19.80426
H         46.05570       44.30914       21.52924
N         41.77831       45.91641       19.74185
C         41.54203       47.34237       19.93689
C         42.73696       48.11962       19.40830
O         42.54583       49.09301       18.69826
C         41.37647       47.65818       21.44051
C         41.21920       49.14392       21.68492
C         40.11637       49.84532       21.16747
C         42.19251       49.84385       22.41902
C         39.99249       51.22225       21.37905
C         42.06742       51.22007       22.62720
C         40.96615       51.91446       22.10689
O         40.83476       53.24274       22.29775
H         41.87794       45.33354       20.57744
H         40.61288       47.65614       19.41056
H         42.27259       47.28245       21.98285
H         40.49100       47.12243       21.84487
H         39.35430       49.32882       20.59798
H         43.05515       49.32778       22.82219
H         39.13990       51.75253       20.97359
H         42.82897       51.74540       23.18974
H         41.48769       53.75850       22.79236
N         44.00550       47.75131       19.75122
C         45.19706       48.46958       19.30239
C         45.46564       48.32211       17.79803
O         46.41104       48.94133       17.32605
C         46.43617       48.04027       20.12363
C         46.23022       48.29277       21.63256
C         47.48598       48.04656       22.41522
O         48.48311       48.71806       22.20239
O         47.50875       47.10887       23.38147
H         44.11861       46.94485       20.38103
H         45.04545       49.55108       19.51570
H         47.30120       48.65201       19.78352
H         46.67531       46.96829       19.94766
H         45.43027       47.63125       22.02655
H         45.92110       49.34680       21.80115
N         44.67229       47.57077       16.97584
C         44.83906       47.48280       15.52528
C         43.70596       48.19348       14.78880
O         43.78288       48.30223       13.57356
C         44.86884       46.00639       15.08792
C         46.04544       45.23260       15.68901
C         46.00094       43.76180       15.36834
O         46.90423       42.93982       15.92921
O         45.14306       43.29470       14.63599
H         43.88302       47.05761       17.37771
H         45.78025       47.98567       15.21136
H         44.93100       45.93924       13.98113
H         43.91800       45.53374       15.41630
H         46.03644       45.33653       16.78826
H         46.99064       45.66619       15.31550
N         42.62864       48.71103       15.44423
C         41.57378       49.43477       14.77381
H         40.80484       49.74386       15.51594
H         41.98967       50.34864       14.30019
H         41.09280       48.79216       14.00851
H         42.53382       48.59453       16.45209
Ca        44.84426       40.24763       14.87431
O         44.76193       38.88356       12.10823
H         44.24099       38.51869       11.35243
H         45.59685       38.35039       12.11390
O         44.23548       41.92565       11.89467
H         43.79094       42.65020       12.39982
H         43.50254       41.47432       11.40666
O         43.71069       40.85380       17.40720
H         43.22012       40.04628       17.69469
H         44.59395       40.77663       17.84309

Ca 1.0



