%chk=holoCaM-CaMKII.loop3.water1.frame480.chk
%nprocshared=20
%mem=10GB
%nosave
#b3lyp/svp scf=(tight,noincore,xqc) Test 
#IOP(5/87=12) Density=Current Pop=(MK,readradii) iop(6/33=2) iop(6/42=6)

holoCaM-CaMKII.loop3.water1.frame480 

   0  1 
C         70.61926       81.89248       65.96845
C         71.36263       82.56862       64.85495
O         72.38401       83.18779       65.11849
H         69.71639       81.36645       65.59274
H         71.28253       81.14818       66.45690
H         70.30319       82.64831       66.71687
N         70.91647       82.47910       63.56991
C         71.62345       83.09234       62.44639
C         71.57699       84.61992       62.58358
O         70.80833       85.11169       63.39966
C         70.98865       82.56701       61.12772
C         71.84808       82.64008       59.89574
O         72.20328       83.70329       59.42828
O         72.19446       81.50042       59.26601
H         70.06723       81.92138       63.38819
H         72.67415       82.73216       62.50041
H         70.00414       83.05367       60.95607
H         70.80167       81.47863       61.26253
N         72.39398       85.43208       61.85507
C         72.41263       86.89135       61.98864
C         72.01272       87.57402       60.68408
O         71.45143       88.65902       60.74121
C         73.81555       87.33697       62.44902
C         73.88612       88.79976       62.92366
C         75.30957       89.15785       63.38545
C         75.37319       90.58039       63.96312
N         76.73675       90.92303       64.37076
H         73.06832       84.99319       61.22246
H         71.68960       87.20697       62.77249
H         74.53026       87.17076       61.61614
H         74.11290       86.70226       63.31410
H         73.18491       88.92771       63.77790
H         73.58597       89.48992       62.10708
H         76.00367       89.07608       62.52042
H         75.63864       88.44372       64.17262
H         74.70070       90.64774       64.84777
H         75.02556       91.31303       63.20187
H         76.74100       91.88448       64.78251
H         77.08226       90.24726       65.09058
H         77.37327       90.90980       63.54090
N         72.27649       87.00079       59.47262
C         71.93479       87.58932       58.18357
C         70.93838       86.72255       57.39923
O         70.62367       87.07802       56.27204
C         73.24460       87.88094       57.41610
C         74.11013       86.67346       57.19279
O         73.72230       85.76323       56.48620
O         75.33176       86.60220       57.75622
H         72.76693       86.10119       59.43817
H         71.43540       88.57352       58.31831
H         73.82809       88.61024       58.01981
H         73.02135       88.35595       56.43712
N         70.33336       85.62759       57.95585
C         69.26902       84.86607       57.30989
C         69.66739       84.02970       56.10572
O         68.77792       83.41350       55.53540
H         70.54123       85.37807       58.93045
H         68.46230       85.57024       57.01237
H         68.83814       84.16016       58.05393
N         70.94925       83.93596       55.65321
C         71.31511       83.14653       54.47540
C         70.99556       81.66835       54.65606
O         70.47553       81.05880       53.73215
C         72.78737       83.36600       54.07065
C         73.80137       82.76697       55.01268
N         74.70982       81.87845       54.55487
O         73.81937       83.08980       56.18954
H         71.68219       84.45793       56.14430
H         70.72556       83.53395       53.61337
H         72.97093       84.45850       53.98100
H         72.93411       82.92696       53.05891
H         74.72452       81.59225       53.56503
H         75.40972       81.48485       55.19624
N         71.21515       81.05344       55.85291
C         70.83787       79.67896       56.14024
C         71.95938       78.86698       56.75151
O         71.66440       77.78144       57.23171
H         71.59337       81.60958       56.63365
H         70.43203       79.14757       55.25221
H         70.02876       79.72559       56.90094
N         73.25308       79.30770       56.79408
C         74.30689       78.59895       57.51381
C         74.91354       79.54578       58.57188
O         75.44234       80.67232       57.93778
C         75.30871       77.91583       56.53583
C         76.15722       78.77483       55.61549
C         77.23609       79.53494       56.10722
C         75.91780       78.76414       54.22805
C         78.03488       80.28541       55.23722
C         76.72033       79.51242       53.35964
C         77.78001       80.27917       53.86288
O         78.56161       81.00531       53.03774
H         73.50305       80.18650       56.32215
H         73.86390       77.75319       58.08361
H         74.68799       77.23586       55.91152
H         76.00003       77.26115       57.10874
H         77.47624       79.53975       57.16112
H         75.10918       78.17584       53.81324
H         78.85877       80.86708       55.63118
H         76.51801       79.49421       52.29594
H         78.42216       81.02501       52.07998
N         75.94011       78.87409       59.37947
C         76.40737       79.65060       60.55171
C         77.89982       79.83785       60.40135
O         78.60414       78.85531       60.20720
C         76.08233       78.94557       61.91318
C         74.55897       78.77110       62.16812
C         76.73464       79.68357       63.10572
C         73.76614       80.07504       62.31650
H         75.63375       77.91228       59.65428
H         75.94066       80.65256       60.59556
H         76.52646       77.92544       61.88812
H         74.42628       78.18917       63.10700
H         74.10407       78.17709       61.34925
H         76.39594       80.73886       63.16850
H         76.49627       79.16779       64.05984
H         77.83946       79.68862       63.01130
H         74.13335       80.67757       63.17261
H         73.81436       80.68125       61.39120
H         72.70017       79.83556       62.51503
N         78.45815       81.07332       60.55006
C         79.89262       81.31491       60.47333
C         80.45847       81.59032       61.85671
O         79.71154       81.60654       62.82514
C         80.16679       82.47119       59.49743
O         79.64665       82.17883       58.22852
H         77.84712       81.86994       60.78987
H         80.41959       80.40962       60.09972
H         81.25443       82.68967       59.41479
H         79.68237       83.39913       59.86987
H         80.26644       81.52618       57.80975
N         81.79826       81.75083       62.02897
C         82.43986       81.89835       63.33344
C         81.97232       83.13752       64.07316
O         81.54226       83.01997       65.21101
C         83.96151       81.95023       63.16582
H         82.39920       81.71229       61.18986
H         82.21267       80.99978       63.95139
H         84.26422       82.82261       62.54844
H         84.45265       82.02193       64.15971
H         84.31590       81.02186       62.66867
N         82.02676       84.36087       63.47624
C         81.62522       85.60645       64.12960
C         80.22579       85.51332       64.69983
O         80.01899       85.86605       65.85302
C         81.67869       86.75951       63.11782
H         82.35099       84.40159       62.49765
H         82.33337       85.84168       64.95434
H         82.70717       86.86666       62.71332
H         80.98274       86.57223       62.27055
H         81.39213       87.71513       63.60696
N         79.22123       85.01595       63.93727
C         77.83237       84.90739       64.37150
C         77.71860       84.08279       65.64195
O         77.21743       84.60129       66.62993
C         76.99980       84.28818       63.23455
C         76.96253       85.22466       62.01272
C         76.41455       84.50380       60.82796
O         75.21390       83.91045       60.87780
O         77.09872       84.38220       59.82419
H         79.47778       84.68129       62.99583
H         77.43023       85.92466       64.58309
H         75.95443       84.09769       63.56643
H         77.45657       83.31201       62.95639
H         77.97472       85.58074       61.73344
H         76.36318       86.11776       62.25968
N         78.17932       82.80245       65.69591
C         78.12136       81.98093       66.88890
H         77.64856       82.50609       67.74562
H         77.53753       81.06154       66.67591
H         79.15198       81.69266       67.18497
H         78.60625       82.38737       64.85960
Ca        74.93337       82.46280       59.20687
O         76.88611       83.56046       56.68450
H         77.14773       82.92948       57.40074
H         77.55424       83.41264       55.96914

Ca 1.0



