%chk=holoCaM-CaMKII.loop3.water2.frame60.chk
%nprocshared=20
%mem=10GB
%nosave
#b3lyp/svp scf=(tight,noincore,xqc) Test 
#IOP(5/87=12) Density=Current Pop=(MK,readradii) iop(6/33=2) iop(6/42=6)

holoCaM-CaMKII.loop3.water2.frame60 

   0  1 
C         -1.56183       53.40606       78.05886
C         -0.26699       53.24513       77.32089
O          0.62263       52.57654       77.81947
H         -2.39037       52.98885       77.44820
H         -1.53218       52.87757       79.03519
H         -1.75054       54.48528       78.24003
N         -0.11926       53.82237       76.09726
C          1.07364       53.73450       75.25548
C          2.15039       54.71817       75.71658
O          2.43044       55.68149       75.01652
C          0.62374       53.94302       73.78426
C          1.69443       53.97329       72.72622
O          1.72821       54.91774       71.95491
O          2.56946       52.96503       72.55361
H         -0.94585       54.30949       75.71592
H          1.47675       52.71052       75.30927
H          0.04740       54.89064       73.70744
H         -0.05726       53.10991       73.52139
N          2.81281       54.52080       76.89366
C          3.85415       55.40856       77.39878
C          5.06725       55.39464       76.48561
O          5.45093       56.46062       76.02324
C          4.25910       55.03306       78.84402
C          3.09035       55.24430       79.82914
C          3.51406       54.97153       81.28049
C          2.40815       55.29659       82.30371
N          1.23038       54.43861       82.15927
H          2.58131       53.69778       77.45730
H          3.45546       56.44792       77.44670
H          5.09129       55.70264       79.15680
H          4.61974       53.98204       78.89043
H          2.24553       54.58078       79.55507
H          2.75108       56.30113       79.75643
H          4.38350       55.62239       81.51960
H          3.83118       53.91209       81.39286
H          2.10823       56.36422       82.20876
H          2.82846       55.15347       83.32398
H          1.50369       53.43345       82.25069
H          0.54919       54.67140       82.91804
H          0.75898       54.60141       81.24178
N          5.72176       54.23296       76.17021
C          6.90728       54.21882       75.30451
C          6.65225       54.79759       73.91461
O          7.62047       55.07912       73.22147
C          7.56056       52.82103       75.18772
C          6.67860       51.78190       74.55427
O          6.98636       51.27862       73.48596
O          5.58019       51.35255       75.19366
H          5.38012       53.35420       76.58397
H          7.65595       54.88221       75.79151
H          7.86436       52.45591       76.19133
H          8.48421       52.92323       74.57570
N          5.39526       55.04182       73.45162
C          5.13055       55.75171       72.21658
C          5.63799       55.03308       70.99636
O          6.40073       55.62128       70.24334
H          4.57959       54.76327       74.01123
H          5.57263       56.77012       72.27767
H          4.03554       55.87796       72.10314
N          5.19746       53.77812       70.70574
C          5.50343       53.09067       69.45718
C          4.25001       52.94447       68.59352
O          4.37531       52.48690       67.46579
C          6.22710       51.75068       69.73337
C          5.37706       50.66397       70.35915
N          5.28430       49.44641       69.77228
O          4.79838       50.86483       71.41540
H          4.57569       53.31907       71.37763
H          6.21135       53.71080       68.86576
H          7.08821       51.95654       70.40551
H          6.64172       51.37072       68.77462
H          5.78425       49.23932       68.89491
H          4.72358       48.69645       70.20311
N          3.01323       53.32701       69.04487
C          1.79460       53.27633       68.25470
C          0.83698       52.19664       68.72706
O         -0.22985       52.08125       68.14440
H          2.89787       53.67577       70.00299
H          2.02014       53.06375       67.18778
H          1.30675       54.27463       68.30009
N          1.18997       51.30763       69.70268
C          0.43482       50.09553       70.01026
C          0.21108       49.93769       71.50705
O          1.12748       50.17087       72.27873
C          1.27470       48.91003       69.50313
C          1.39295       48.93234       67.99540
C          0.29954       48.55788       67.19585
C          2.58942       49.32584       67.37459
C          0.40867       48.56140       65.80127
C          2.69274       49.34341       65.98085
C          1.60339       48.95415       65.18879
O          1.69285       48.95345       63.84329
H          2.10860       51.39978       70.15795
H         -0.54580       50.06138       69.48639
H          0.83380       47.93568       69.80706
H          2.28036       48.97830       69.97158
H         -0.63192       48.24776       67.65301
H          3.43706       49.63484       67.96573
H         -0.43588       48.25648       65.19595
H          3.62009       49.65798       65.51871
H          2.50237       49.21412       63.38096
N         -0.96770       49.42138       71.96817
C         -1.24215       49.12476       73.37503
C         -1.36135       47.61143       73.54257
O         -2.13454       46.98731       72.83189
C         -2.54768       49.83346       73.84197
C         -2.42158       51.36854       73.68082
C         -2.85429       49.47159       75.31463
C         -3.72867       52.12153       73.93903
H         -1.69581       49.17443       71.28151
H         -0.41922       49.49304       74.02390
H         -3.38377       49.47452       73.20163
H         -2.12153       51.60901       72.63863
H         -1.63942       51.74813       74.37143
H         -2.96967       48.37610       75.44215
H         -2.03352       49.81811       75.98042
H         -3.80683       49.91888       75.65701
H         -4.51644       51.76570       73.24117
H         -4.07901       51.99917       74.98269
H         -3.56804       53.20651       73.76674
N         -0.64578       46.97434       74.51595
C         -0.69862       45.54017       74.78743
C         -1.30555       45.29156       76.16392
O         -1.70135       46.23875       76.81692
C          0.72241       44.95518       74.68903
O          1.55734       45.47561       75.69163
H         -0.05698       47.53867       75.13490
H         -1.33543       45.02341       74.03805
H          1.14590       45.14578       73.67514
H          0.69818       43.85187       74.80206
H          2.03989       46.24839       75.30123
N         -1.43119       44.02588       76.65752
C         -2.03954       43.71809       77.95358
C         -1.28278       44.33118       79.11984
O         -1.90256       45.00990       79.92775
C         -2.11302       42.20176       78.15382
H         -1.10577       43.24334       76.07226
H         -3.08711       44.09520       77.96122
H         -2.71163       41.74433       77.33810
H         -1.09827       41.75048       78.15299
H         -2.60961       41.97135       79.12138
N          0.05782       44.13005       79.27348
C          0.83842       44.66283       80.39164
C          0.62545       46.15169       80.54701
O          0.32181       46.60631       81.64099
C          2.33204       44.38317       80.17554
H          0.54946       43.58995       78.54390
H          0.53056       44.15989       81.33539
H          2.69444       44.86865       79.24311
H          2.92425       44.77538       81.03075
H          2.51044       43.29008       80.09956
N          0.72406       46.96100       79.46250
C          0.50134       48.40027       79.50152
C         -0.87861       48.71994       80.05685
O         -0.96719       49.45961       81.02741
C          0.69068       48.98865       78.09091
C          2.15193       48.82925       77.62368
C          2.34966       49.43060       76.27355
O          3.14840       50.49117       76.12052
O          1.77300       48.98153       75.30125
H          0.93604       46.51279       78.55852
H          1.25527       48.87623       80.16852
H          0.44869       50.07058       78.11811
H         -0.00651       48.49765       77.37674
H          2.46251       47.76543       77.57414
H          2.81325       49.35047       78.34889
N         -1.99709       48.16412       79.52237
C         -3.31925       48.39826       80.05968
H         -4.06749       47.80373       79.49211
H         -3.35725       48.08136       81.12425
H         -3.57924       49.47396       79.97926
H         -1.90665       47.52600       78.72874
Ca         3.06499       51.42525       74.08906
O          2.75608       47.67628       72.42496
H          2.52874       46.94639       71.79613
H          2.93251       47.21765       73.28348
O          5.67926       48.34810       73.80474
H          5.56230       47.46931       73.36402
H          6.65867       48.43832       73.91880

Ca 1.0



