%chk=holoCaM-CaMKII.loop4.water1.frame377.chk
%nprocshared=20
%mem=10GB
%nosave
#b3lyp/svp scf=(tight,noincore,xqc) Test 
#IOP(5/87=12) Density=Current Pop=(MK,readradii) iop(6/33=2) iop(6/42=6)

holoCaM-CaMKII.loop4.water1.frame377 

   -3  1 
C         68.43041       63.98094       40.71317
C         68.17585       64.27401       39.26218
O         67.31378       63.64300       38.67199
H         69.23213       64.63138       41.12451
H         67.50389       64.15475       41.29865
H         68.74707       62.92353       40.82921
N         68.89344       65.23503       38.62232
C         68.71519       65.58333       37.21698
C         69.06471       64.40690       36.30641
O         70.17575       63.90209       36.38662
C         69.60559       66.79872       36.89612
C         69.50517       67.21034       35.46563
O         70.60709       67.19553       34.69602
O         68.43505       67.55527       34.99574
H         69.59390       65.75734       39.17243
H         67.65804       65.89236       37.05257
H         70.66624       66.55417       37.12250
H         69.30134       67.65838       37.53372
N         68.15713       63.94696       35.39309
C         68.40054       62.83934       34.46707
C         68.34590       63.28297       33.00047
O         68.50470       62.42535       32.14239
C         67.38964       61.67238       34.72017
C         65.92165       62.08265       34.42205
C         67.55042       61.12982       36.15036
C         64.92666       60.92225       34.50318
H         67.24518       64.41297       35.34345
H         69.42076       62.42562       34.62544
H         67.66026       60.84608       34.02511
H         65.85731       62.48236       33.38849
H         65.59727       62.87570       35.12179
H         67.24844       61.89317       36.89230
H         66.93477       60.22226       36.31010
H         68.60694       60.84343       36.33636
H         64.86081       60.51166       35.53057
H         63.91468       61.28476       34.22366
H         65.21801       60.11517       33.79787
N         68.14038       64.58317       32.62764
C         68.03130       65.01659       31.23053
C         69.18753       65.93420       30.83461
O         69.20195       66.41184       29.70836
C         66.70815       65.78962       31.04900
C         65.51667       65.04415       31.59762
O         65.13894       64.01088       31.06964
O         64.91274       65.48568       32.72468
H         68.05043       65.31071       33.35138
H         68.03420       64.14184       30.54471
H         66.53581       66.05536       29.98363
H         66.81778       66.74342       31.59350
N         70.18037       66.24498       31.71474
C         71.25080       67.18689       31.44199
C         70.73194       68.59256       31.23126
O         71.18435       69.26049       30.31295
H         70.18818       65.81260       32.64732
H         71.87623       66.85042       30.58697
H         71.90600       67.22107       32.33948
N         69.78017       69.10585       32.06186
C         69.29851       70.48386       32.01450
C         69.43443       71.16891       33.37489
O         69.00008       72.30440       33.50835
C         67.87904       70.52049       31.41154
C         66.79940       69.73928       32.10481
O         65.76227       69.52090       31.49904
O         66.92216       69.26640       33.35696
H         69.36016       68.47937       32.76174
H         69.91265       71.08248       31.30570
H         67.98501       70.07060       30.39853
H         67.53262       71.56653       31.26767
N         70.10357       70.56898       34.40690
C         70.38495       71.20019       35.68403
C         69.19779       71.37556       36.60329
O         69.42149       71.88307       37.69371
H         70.53925       69.65121       34.26590
H         70.87511       72.18187       35.50569
H         71.10837       70.55984       36.23539
N         67.92555       71.00652       36.26857
C         66.78968       71.21540       37.16505
C         66.01878       69.92400       37.41351
O         66.31248       68.91157       36.79164
C         65.95534       72.41169       36.65640
C         65.33321       72.25327       35.25774
C         64.13616       71.35207       35.27852
N         63.04885       71.70479       36.00439
O         64.13280       70.31981       34.62527
H         67.74358       70.60319       35.34223
H         67.16248       71.52724       38.16524
H         66.65857       73.27160       36.60143
H         65.17782       72.68768       37.39971
H         66.09587       71.90837       34.52870
H         64.97814       73.24679       34.90946
H         63.03231       72.58653       36.53574
H         62.21017       71.11795       36.03217
N         65.07993       69.87597       38.40349
C         64.42597       68.64807       38.85386
C         62.90852       68.81944       38.84894
O         62.40930       69.74224       39.47825
C         64.95139       68.30077       40.28469
C         64.25669       67.06785       40.88617
C         66.46855       68.03308       40.25900
H         64.89323       70.73722       38.94045
H         64.69167       67.78654       38.20059
H         64.75794       69.16033       40.96446
H         64.66027       66.85295       41.89958
H         63.17127       67.25054       41.00504
H         64.41687       66.17480       40.24758
H         66.70169       67.16779       39.60013
H         67.02644       68.91922       39.89383
H         66.83883       67.80313       41.28153
N         62.11463       67.88832       38.23957
C         60.65664       67.84346       38.36448
C         60.29137       66.76337       39.37615
O         61.17926       66.13455       39.92709
C         59.97952       67.50525       37.00860
C         60.04975       68.57485       35.94882
N         61.21998       68.94365       35.38998
O         59.01281       69.08815       35.55315
H         62.57165       67.08087       37.79273
H         60.25183       68.80159       38.75878
H         58.89809       67.33320       37.18593
H         60.39447       66.55653       36.60419
H         62.10974       68.53478       35.69507
H         61.23024       69.64484       34.63437
N         58.99098       66.50029       39.68540
C         58.58861       65.45845       40.62571
C         59.03051       64.08382       40.13911
O         59.69650       63.37715       40.88300
C         57.05573       65.49386       40.81356
C         56.57246       64.57631       41.91191
C         56.98759       64.78383       43.23933
C         55.68157       63.52744       41.62975
C         56.51876       63.95970       44.26516
C         55.21272       62.70386       42.65906
C         55.62847       62.92011       43.98141
O         55.17653       62.14200       44.98545
H         58.25475       67.07234       39.24563
H         59.06044       65.67718       41.60895
H         56.56303       65.24922       39.84681
H         56.74696       66.52511       41.09086
H         57.66605       65.59089       43.48476
H         55.34417       63.34958       40.61629
H         56.84276       64.13552       45.28338
H         54.52234       61.90230       42.42888
H         54.54920       61.42056       44.83572
N         58.69444       63.64754       38.88786
C         59.03366       62.32035       38.36182
C         60.54537       62.07767       38.22268
O         60.92537       60.96563       37.88614
C         58.27763       62.10828       37.02318
C         58.32550       60.66862       36.48108
C         57.41353       60.51279       35.29676
O         57.86076       60.16774       34.21478
O         56.09086       60.73268       35.42978
H         58.13083       64.28025       38.29891
H         58.63389       61.57284       39.08228
H         58.65104       62.81893       36.25250
H         57.20802       62.34346       37.22212
H         57.98815       59.96134       37.26890
H         59.35706       60.40092       36.17547
N         61.46931       63.03475       38.52399
C         62.90710       62.80503       38.50942
C         63.37466       62.59348       39.93528
O         63.93568       61.54601       40.22614
C         63.63288       63.99826       37.86222
C         63.19111       64.22528       36.41241
C         63.90953       65.39886       35.82039
O         65.12625       65.42834       35.79216
O         63.21333       66.42709       35.31131
H         61.15949       63.95579       38.84155
H         63.16049       61.88846       37.92906
H         64.72784       63.80324       37.88222
H         63.43383       64.92133       38.44580
H         62.09747       64.41833       36.36836
H         63.41044       63.31993       35.81176
N         63.14056       63.53170       40.89255
C         63.51007       63.34286       42.27627
H         63.19348       64.22615       42.87196
H         62.99790       62.44445       42.68267
H         64.60943       63.22348       42.36535
H         62.66109       64.40261       40.64217
Ca        65.81659       67.33246       33.68225
O         62.99424       67.97829       32.70959
H         62.23858       67.34071       32.65769
H         62.58158       68.86754       32.57364

Ca 1.0



