%chk=holoCaM.loop1.water1.frame440.chk
%nprocshared=20
%mem=10GB
%nosave
#b3lyp/svp scf=(tight,noincore,xqc) Test 
#IOP(5/87=12) Density=Current Pop=(MK,readradii) iop(6/33=2) iop(6/42=6)

holoCaM.loop1.water1.frame440 

   0  1 
C          2.68523      106.03044       46.54091
C          2.93758      107.37179       47.16355
O          2.17506      107.77341       48.03041
H          1.69065      106.02800       46.04979
H          3.45702      105.78405       45.78102
H          2.70861      105.24820       47.32857
N          4.01277      108.11561       46.78373
C          4.34036      109.40056       47.38839
C          3.24868      110.42358       47.06964
O          3.09297      110.78770       45.91223
C          5.72433      109.84560       46.86851
C          6.28965      111.05188       47.54002
O          5.63225      111.67063       48.53260
O          7.38162      111.46265       47.19242
H          4.64550      107.72502       46.06744
H          4.42118      109.23952       48.48803
H          5.66691      110.03108       45.77362
H          6.45046      109.02146       47.04311
N          2.40070      110.86258       48.04555
C          1.24475      111.72149       47.77485
C          1.60234      113.17837       47.48876
O          0.79308      113.84615       46.86013
C          0.22457      111.66166       48.93790
C         -0.42225      110.26882       49.05823
C         -1.44838      110.21224       50.19873
C         -2.18192      108.86203       50.20657
N         -3.15226      108.79400       51.29870
H          2.51243      110.46554       48.98863
H          0.72284      111.32630       46.87360
H         -0.59629      112.38661       48.74073
H          0.72147      111.95046       49.89055
H          0.35018      109.48984       49.23181
H         -0.94051      110.04629       48.09911
H         -2.19956      111.02103       50.06585
H         -0.92990      110.36543       51.16978
H         -1.44836      108.03248       50.31507
H         -2.71716      108.73247       49.23894
H         -3.65299      107.87687       51.25654
H         -2.66174      108.86788       52.21715
H         -3.85185      109.56653       51.21320
N          2.72754      113.76822       47.98474
C          3.05647      115.18898       47.78492
C          4.40769      115.39222       47.10913
O          4.77393      116.53964       46.89209
C          2.97567      115.96024       49.12590
C          3.67666      115.24424       50.23271
O          4.96494      114.88315       50.12995
O          3.02214      114.83142       51.17842
H          3.36026      113.19691       48.56377
H          2.32078      115.67750       47.10999
H          1.90237      116.03486       49.41062
H          3.36302      116.99530       49.01845
N          5.18548      114.35108       46.70294
C          6.43744      114.53172       45.99131
C          7.48192      115.24900       46.81226
O          7.98715      116.26409       46.35361
H          4.86809      113.38533       46.84817
H          6.24668      115.08435       45.04464
H          6.84440      113.53658       45.71658
N          7.88493      114.75385       48.01844
C          8.98502      115.33284       48.79194
C         10.15367      114.36002       48.95032
O         11.18357      114.77575       49.46255
C          8.48801      115.87325       50.15264
C          7.92469      114.85493       51.11113
O          7.85793      113.67332       50.82276
O          7.48082      115.26238       52.31470
H          7.40502      113.91768       48.38065
H          9.40044      116.20725       48.24491
H          7.70143      116.63386       49.95931
H          9.33543      116.38155       50.66158
N         10.07920      113.06405       48.52545
C         11.18309      112.12291       48.56896
C         10.93070      110.95744       49.50077
O         11.74913      110.04809       49.49009
H          9.20930      112.70443       48.12544
H         12.13175      112.60690       48.88632
H         11.33392      111.73826       47.53706
N          9.88888      110.93536       50.38929
C          9.72799      109.87629       51.38330
C          8.30715      109.33538       51.45898
O          7.37286      109.95980       50.97475
C         10.13266      110.40005       52.78818
C         11.60694      110.82544       52.85583
O          9.28990      111.44997       53.20261
H          9.25274      111.73859       50.43518
H         10.39288      109.02125       51.13000
H         10.01804      109.57437       53.52338
H          9.53887      112.26722       52.69700
H         12.26310      109.96970       52.59031
H         11.81436      111.66679       52.16132
H         11.85419      111.15372       53.88759
N          8.09971      108.17119       52.13985
C          6.81266      107.57450       52.48647
C          6.74262      107.61091       54.01384
O          7.65234      107.12958       54.67595
C          6.68833      106.13344       51.88784
C          6.24353      106.12783       50.39330
C          5.65286      105.28021       52.65170
C          7.11650      106.90003       49.41168
H          8.93465      107.68551       52.50504
H          5.96195      108.16297       52.09044
H          7.66641      105.61501       51.99864
H          5.21038      106.53661       50.31061
H          6.21808      105.07215       50.04436
H          4.64485      105.74087       52.60631
H          5.59636      104.25984       52.21482
H          5.94191      105.15371       53.71533
H          7.05610      107.98179       49.60495
H          8.16836      106.55294       49.45392
H          6.72353      106.74909       48.38305
N          5.69005      108.21731       54.62809
C          5.58863      108.49363       56.05409
C          4.39253      107.75278       56.64527
O          3.87758      106.84623       56.00601
C          5.46465      110.03721       56.24163
C          6.62580      110.80551       55.58616
O          4.21555      110.51052       55.79191
H          4.91666      108.55369       54.05133
H          6.50247      108.16685       56.59654
H          5.53310      110.28337       57.31972
H          4.26449      110.66653       54.81620
H          7.59601      110.46074       56.00054
H          6.63499      110.65871       54.48467
H          6.51728      111.89088       55.79197
N          3.87403      108.11397       57.85438
C          2.67503      107.51953       58.43975
C          1.48405      107.63220       57.49283
O          0.86115      106.61840       57.21035
C          2.32505      108.19194       59.79983
C          3.40248      107.95273       60.86451
O          2.14014      109.57553       59.63069
H          4.32683      108.87789       58.36990
H          2.85825      106.43913       58.63772
H          1.37969      107.72533       60.16664
H          1.53831      109.88385       60.35744
H          3.08775      108.41999       61.82209
H          3.53953      106.86449       61.03381
H          4.37533      108.39794       60.57177
N          1.09893      108.83711       56.98146
C         -0.09910      109.01221       56.15883
C         -0.01555      108.34196       54.78821
O         -1.01077      108.38548       54.07966
C         -0.37882      110.52061       55.91899
C         -0.56174      111.37545       57.18796
C         -1.76710      110.95207       58.03694
C         -1.93545      111.89002       59.23994
N         -3.08810      111.50116       60.05087
H          1.65763      109.66502       57.22883
H         -0.96080      108.57122       56.70390
H         -1.29841      110.63376       55.30242
H          0.46993      110.94860       55.33993
H         -0.71602      112.42637       56.85763
H          0.35611      111.35596       57.81067
H         -1.62338      109.91674       58.41105
H         -2.68680      110.98811       57.41286
H         -2.07729      112.93403       58.88098
H         -1.01705      111.85674       59.86800
H         -2.95960      110.52956       60.41601
H         -3.17398      112.15849       60.85946
H         -3.96263      111.55172       59.47932
N          1.12481      107.75979       54.31630
C          1.26977      107.27253       52.94513
C          1.56495      105.77886       52.89351
O          1.68932      105.25762       51.79358
C          2.41666      108.05513       52.26112
C          2.25271      109.57639       52.42971
C          3.43715      110.35931       51.95005
O          3.26182      111.40940       51.14955
O          4.55110      110.14528       52.38689
H          1.95896      107.73581       54.90960
H          0.33478      107.44850       52.36928
H          2.48732      107.78924       51.18326
H          3.36173      107.75158       52.74774
H          2.16551      109.82038       53.50787
H          1.32870      109.92238       51.92081
N          1.69623      105.02408       54.02539
C          1.99555      103.60605       54.01158
H          2.94812      103.42864       54.55413
H          1.18216      103.05382       54.52720
H          2.09903      103.20075       52.98357
H          1.59009      105.45377       54.95306
Ca         5.00112      112.80435       50.90156
O          5.11804      113.37074       53.85059
H          5.75615      113.93526       54.35479
H          4.22549      113.71912       54.09958

Ca 1.0



