%chk=holoCaM-CaMKII.loop2.water0.frame186.chk
%nprocshared=20
%mem=10GB
%nosave
#b3lyp/svp scf=(tight,noincore,xqc) Test 
#IOP(5/87=12) Density=Current Pop=(MK,readradii) iop(6/33=2) iop(6/42=6)

holoCaM-CaMKII.loop2.water0.frame186 

   -2  1 
C         11.01888       63.16414       -5.88189
C         10.72434       64.62514       -6.04926
O          9.78228       64.96211       -6.75141
H         11.88451       63.00061       -5.20509
H         10.13319       62.65847       -5.44278
H         11.24977       62.71392       -6.86863
N         11.48332       65.55550       -5.40835
C         11.21117       66.98490       -5.47381
C         11.39175       67.50117       -6.90012
O         12.51558       67.54321       -7.38173
C         12.15411       67.70464       -4.48654
C         11.91208       69.16494       -4.30954
O         10.98102       69.73070       -4.85524
O         12.74382       69.85465       -3.51201
H         12.25606       65.22296       -4.80994
H         10.16551       67.13903       -5.13429
H         13.20345       67.56197       -4.82364
H         12.04794       67.24425       -3.47983
N         10.30931       67.84717       -7.65635
C         10.41129       68.26030       -9.05148
C         10.89280       69.69656       -9.17155
O         11.97049       69.91198       -9.70797
C          9.06383       68.08277       -9.76846
H          9.37724       67.69951       -7.25594
H         11.12179       67.57572       -9.56836
H          8.74856       67.01852       -9.71370
H          8.26463       68.69877       -9.30654
H          9.15966       68.36234      -10.83952
N         10.12424       70.73908       -8.72968
C         10.52282       72.14345       -8.87749
C         11.71424       72.51741       -7.99781
O         12.19160       73.63720       -8.11636
C          9.31447       73.08608       -8.61592
C          8.76797       73.00800       -7.21923
O          9.41135       72.28461       -6.29463
O          7.69909       73.52983       -6.94561
H          9.19903       70.52490       -8.32876
H         10.80784       72.30062       -9.94099
H          8.50536       72.77913       -9.31505
H          9.57395       74.14291       -8.83734
N         12.24159       71.64570       -7.08778
C         13.38029       71.95794       -6.24577
C         13.09583       73.10782       -5.30994
O         13.81771       74.09290       -5.37203
H         11.83954       70.70669       -6.98219
H         14.25722       72.18656       -6.89037
H         13.64057       71.06790       -5.63692
N         12.06620       73.05093       -4.41029
C         11.76204       74.14240       -3.47959
C         11.89600       73.73529       -2.01370
O         11.91332       74.61756       -1.16708
C         10.37736       74.74389       -3.80014
C          9.19855       73.88061       -3.39930
N          8.17736       74.40611       -2.68521
O          9.14352       72.71104       -3.73841
H         11.47319       72.21133       -4.41066
H         12.50391       74.95368       -3.64165
H         10.33677       74.92510       -4.89643
H         10.28101       75.73067       -3.29886
H          8.17916       75.39577       -2.40125
H          7.35995       73.82703       -2.44697
N         11.98908       72.42686       -1.63799
C         12.21138       71.96988       -0.27790
C         11.03719       71.19435        0.28290
O         11.18753       70.64992        1.36756
H         11.89985       71.69307       -2.34249
H         12.42351       72.81273        0.41448
H         13.10894       71.31375       -0.29019
N          9.81982       71.16217       -0.34038
C          8.63766       70.54220        0.25245
C          7.92652       69.62216       -0.73080
O          7.53624       70.06155       -1.80400
C          7.66164       71.63568        0.74834
C          8.25612       72.43241        1.91302
O          7.33400       72.52596       -0.28587
H          9.68874       71.68305       -1.21888
H          8.91058       69.94700        1.15180
H          6.74046       71.14850        1.14960
H          6.51250       72.18321       -0.72350
H          9.18404       72.95920        1.60657
H          7.52193       73.18718        2.26536
H          8.49003       71.75248        2.76079
N          7.66102       68.33225       -0.37730
C          6.84049       67.41728       -1.16975
C          5.43459       67.97454       -1.36403
O          4.78071       68.34491       -0.39915
C          6.82658       65.99210       -0.51628
C          8.18920       65.30915       -0.82645
C          5.65820       65.11654       -1.02058
C          8.38201       63.93422       -0.18858
H          8.01902       67.99801        0.53045
H          7.28728       67.29440       -2.17059
H          6.67834       66.09889        0.58135
H          9.01804       65.95999       -0.47607
H          8.29266       65.19004       -1.92981
H          5.64168       64.13405       -0.51036
H          4.68311       65.58423       -0.76968
H          5.71790       64.96018       -2.11439
H          8.32604       64.01291        0.91610
H          7.63302       63.20276       -0.55311
H          9.38199       63.54262       -0.47256
N          4.88244       67.93681       -2.61224
C          3.50485       68.28452       -2.93440
C          2.71410       67.00537       -3.18431
O          3.27666       65.92828       -3.07236
C          3.48983       69.17601       -4.19622
C          4.25887       70.45001       -3.99844
O          3.87786       71.32932       -3.05299
O          5.22096       70.70292       -4.70614
H          5.44068       67.53972       -3.37805
H          3.02002       68.81514       -2.08633
H          2.44928       69.44714       -4.46885
H          3.92971       68.60713       -5.04833
N          1.39290       67.04259       -3.51283
C          0.59128       65.84487       -3.76222
C          1.15193       64.98486       -4.90613
O          1.37259       63.80855       -4.65924
C         -0.87455       66.22367       -4.05660
C         -1.74980       64.99920       -4.18087
C         -2.23599       64.59879       -5.43649
C         -2.08501       64.24551       -3.04170
C         -3.03957       63.46051       -5.55086
C         -2.90226       63.11646       -3.15883
C         -3.37663       62.72272       -4.41289
H          0.93370       67.96409       -3.57862
H          0.59098       65.23652       -2.82847
H         -0.91176       66.81891       -4.98790
H         -1.28623       66.87034       -3.25140
H         -1.98001       65.15787       -6.32774
H         -1.72590       64.53980       -2.06310
H         -3.40152       63.15090       -6.52251
H         -3.16819       62.54636       -2.27770
H         -4.00492       61.84597       -4.50317
N          1.41168       65.46121       -6.17038
C          1.92472       64.63182       -7.26166
C          3.25777       63.98293       -6.92099
O          3.43680       62.80972       -7.21775
C          2.00552       65.60619       -8.45127
C          2.19237       66.95614       -7.79351
C          1.25585       66.84076       -6.59930
H          1.22008       63.81812       -7.54324
H          2.73918       65.34424       -9.24404
H          0.99657       65.64757       -8.92114
H          3.23656       67.03427       -7.43071
H          1.99662       67.83581       -8.44336
H          1.55666       67.60125       -5.85998
H          0.20467       66.99345       -6.92747
N          4.22312       64.67261       -6.26762
C          5.53140       64.12460       -5.91488
C          5.38863       62.94575       -4.97035
O          6.07586       61.95133       -5.15310
C          6.39050       65.21891       -5.25889
C          6.59296       66.39922       -6.22580
C          7.26843       67.57119       -5.60949
O          7.37187       68.68170       -6.34376
O          7.72324       67.54497       -4.48029
H          3.99511       65.62994       -5.97401
H          6.07153       63.79889       -6.83291
H          7.38478       64.81093       -4.96840
H          5.87310       65.56787       -4.34546
H          5.62517       66.79560       -6.57986
H          7.16822       66.07170       -7.11889
N          4.48477       62.98601       -3.95268
C          4.27525       61.91445       -3.00405
H          3.23865       61.52969       -3.11036
H          4.98565       61.07564       -3.15016
H          4.40141       62.31250       -1.97564
H          3.88385       63.80937       -3.85751
Ca         8.35304       70.49537       -5.55184

Ca 1.0



