%chk=holoCaM.loop3.water2.frame74.chk
%nprocshared=20
%mem=10GB
%nosave
#b3lyp/svp scf=(tight,noincore,xqc) Test 
#IOP(5/87=12) Density=Current Pop=(MK,readradii) iop(6/33=2) iop(6/42=6)

holoCaM.loop3.water2.frame74 

   0  1 
C         95.45903        1.51705       24.02937
C         94.55975        1.22916       25.19226
O         95.05553        0.84497       26.24208
H         96.52150        1.33464       24.30083
H         95.19009        0.85839       23.17773
H         95.34629        2.57863       23.72626
N         93.21019        1.38120       25.06761
C         92.27784        1.12635       26.15574
C         91.39374       -0.04522       25.80047
O         90.66227        0.01666       24.82114
C         91.42173        2.37170       26.43909
C         90.48105        2.16907       27.60202
O         90.45359        1.01229       28.29276
O         89.74842        3.07443       27.95010
H         92.82769        1.67634       24.15572
H         92.83731        0.89153       27.08857
H         90.82879        2.63455       25.53583
H         92.09174        3.22495       26.67107
N         91.41890       -1.15899       26.57839
C         90.58868       -2.32230       26.32184
C         89.14846       -2.02075       26.69942
O         88.28682       -2.11871       25.83627
C         91.16732       -3.56538       27.03659
C         92.65669       -3.83132       26.67660
C         92.92434       -3.95514       25.16357
C         94.41624       -4.15105       24.86348
N         94.65040       -4.21497       23.41973
H         92.07322       -1.18312       27.37498
H         90.61176       -2.55775       25.23715
H         90.55940       -4.45161       26.75288
H         91.09984       -3.43825       28.13905
H         92.98285       -4.76312       27.18675
H         93.28712       -3.00750       27.07223
H         92.62602       -3.01972       24.64820
H         92.33792       -4.80343       24.74972
H         94.77957       -5.08641       25.34183
H         94.99072       -3.29377       25.28248
H         95.67402       -4.32965       23.24087
H         94.13895       -5.02859       23.00746
H         94.32877       -3.33040       22.96190
N         88.81326       -1.60130       27.95882
C         87.43964       -1.24371       28.33277
C         86.87929       -0.04113       27.55062
O         85.68893        0.21632       27.66280
C         87.30652       -1.04866       29.86117
C         88.14820        0.06526       30.41718
O         89.08919       -0.20302       31.34166
O         87.96558        1.21671       30.06337
H         89.55745       -1.55039       28.67129
H         86.79884       -2.11884       28.08233
H         87.60716       -1.99708       30.35871
H         86.24272       -0.85880       30.12216
N         87.65091        0.69054       26.69365
C         87.13134        1.66233       25.74417
C         86.59166        2.97615       26.27631
O         86.15989        3.75279       25.43466
H         88.64579        0.46765       26.59752
H         86.33839        1.16719       25.14169
H         87.95380        1.93090       25.04523
N         86.55573        3.33367       27.59616
C         85.95803        4.61279       28.00005
C         86.74181        5.83469       27.50940
O         86.20383        6.93140       27.56881
C         85.73276        4.71319       29.52343
C         87.00222        4.93958       30.31068
N         87.16049        6.07271       31.03676
O         87.89206        4.10417       30.29244
H         86.88820        2.67366       28.31009
H         84.94465        4.63200       27.53802
H         85.21393        3.80139       29.88966
H         85.04977        5.57235       29.70357
H         86.42594        6.79573       31.06148
H         88.02132        6.23405       31.57714
N         88.02803        5.72797       27.06575
C         88.82491        6.83968       26.57661
C         90.04639        7.13638       27.43332
O         90.85245        7.94126       26.98893
H         88.48182        4.81141       27.05906
H         88.23154        7.77527       26.49593
H         89.16381        6.57124       25.55219
N         90.24084        6.58856       28.67552
C         91.40788        6.89527       29.51211
C         92.16481        5.59702       29.90516
O         91.96493        4.61727       28.94062
C         90.97325        7.61965       30.80701
C         90.46684        9.03378       30.60131
C         89.31323        9.31480       29.84520
C         91.15594       10.10250       31.20529
C         88.87423       10.63438       29.68576
C         90.71060       11.41683       31.05195
C         89.56882       11.68824       30.28838
O         89.12886       12.95336       30.13295
H         89.53217        5.94918       29.06230
H         92.12224        7.54425       28.95861
H         91.84925        7.66811       31.48709
H         90.20081        7.01911       31.32885
H         88.74320        8.52417       29.38079
H         92.04037        9.92157       31.80354
H         87.98845       10.83797       29.09711
H         91.25440       12.22231       31.52956
H         89.57820       13.70743       30.54153
N         93.61673        5.85156       30.09791
C         94.37968        4.68544       30.62105
C         95.15457        5.02669       31.89608
O         96.00963        5.90026       31.87478
C         95.34513        4.06951       29.54097
C         96.42584        5.06531       29.03283
C         94.56728        3.47671       28.35749
C         97.39727        4.46217       28.01295
H         93.73136        6.67261       30.73469
H         93.68418        3.88417       30.91806
H         95.86764        3.21292       30.02546
H         97.05868        5.39203       29.87687
H         95.94341        5.95847       28.58184
H         95.23950        2.91867       27.68307
H         93.83585        2.72811       28.70535
H         94.06961        4.27328       27.76889
H         96.88925        4.20574       27.06195
H         98.18824        5.20205       27.77218
H         97.87470        3.55291       28.42829
N         94.91227        4.34830       33.05525
C         95.72495        4.53062       34.25651
C         97.13858        3.98834       34.03608
O         97.43154        3.47812       32.96307
C         95.06650        3.81843       35.45567
O         95.04030        2.42836       35.26495
H         94.14174        3.66354       33.07767
H         95.76512        5.61414       34.50613
H         94.04039        4.22852       35.61171
H         95.61907        4.02864       36.39460
H         94.09686        2.16849       35.11009
N         98.05990        4.03280       35.03991
C         99.39912        3.45726       34.93251
C         99.33277        1.97230       34.62179
O        100.01330        1.53018       33.70801
C        100.17286        3.66842       36.23798
H         97.78863        4.47418       35.93137
H         99.96630        3.97682       34.12735
H        100.25912        4.75450       36.45417
H         99.65972        3.17225       37.08912
H        101.19848        3.25033       36.14359
N         98.51893        1.14682       35.33936
C         98.38342       -0.28362       35.07587
C         97.88641       -0.55226       33.66364
O         98.53975       -1.29189       32.94070
C         97.41825       -0.91733       36.08550
H         97.96141        1.56209       36.10223
H         99.37300       -0.77418       35.21531
H         96.40560       -0.46672       36.00829
H         97.33890       -2.01090       35.90440
H         97.79726       -0.76250       37.11817
N         96.73450        0.01855       33.20288
C         96.18591       -0.23779       31.86679
C         97.11350        0.22158       30.74000
O         96.81804       -0.08554       29.59307
C         94.82268        0.46786       31.68861
C         93.73821       -0.01009       32.67275
C         92.51945        0.84494       32.49572
O         92.21689        1.66524       33.34694
O         91.82204        0.79634       31.34991
H         96.22809        0.64607       33.84147
H         96.03571       -1.33526       31.76075
H         94.44555        0.30827       30.65327
H         94.98706        1.56007       31.83052
H         94.09686        0.10295       33.71410
H         93.48513       -1.08046       32.50980
N         98.23752        0.95620       30.97714
C         99.16799        1.37187       29.94920
H        100.16948        0.94890       30.17546
H         98.86444        1.03357       28.93688
H         99.24843        2.47777       29.95403
H         98.46099        1.25065       31.92963
Ca        91.82607        2.64328       30.09009
O         88.44718        2.68582       32.95523
H         88.95710        2.52387       33.78824
H         87.78313        3.37831       33.20052
O         91.01380        4.71100       32.77880
H         91.06426        4.14032       33.58560
H         91.68391        5.42206       32.93855

Ca 1.0



