%chk=holoCaM.loop2.water1.frame249.chk
%nprocshared=20
%mem=10GB
%nosave
#b3lyp/svp scf=(tight,noincore,xqc) Test 
#IOP(5/87=12) Density=Current Pop=(MK,readradii) iop(6/33=2) iop(6/42=6)

holoCaM.loop2.water1.frame249 

   -2  1 
C         86.63474       87.92371       54.70901
C         87.15789       88.81033       53.62194
O         86.41620       89.14851       52.71014
H         85.56904       87.66849       54.53088
H         87.23071       86.98762       54.74174
H         86.72207       88.44619       55.68491
N         88.44928       89.23523       53.66421
C         89.02620       90.11411       52.65705
C         88.99744       89.42592       51.30020
O         89.50949       88.32050       51.18959
C         90.44825       90.52523       53.08383
C         91.04120       91.63266       52.26252
O         92.23629       92.12468       52.61917
O         90.44377       92.12972       51.32179
H         89.03379       88.93354       54.46034
H         88.42189       91.03809       52.63864
H         91.12675       89.64525       53.07664
H         90.39500       90.91730       54.12362
N         88.38210       90.01529       50.23283
C         88.16187       89.34942       48.95401
C         89.02006       89.90202       47.82865
O         89.02343       89.28822       46.77013
C         86.67522       89.42972       48.59729
H         88.02660       90.96898       50.34044
H         88.44164       88.27749       49.04499
H         86.46603       88.88423       47.65325
H         86.06594       88.97962       49.40978
H         86.36792       90.49155       48.47267
N         89.82149       90.99534       47.98780
C         90.83701       91.38315       47.00981
C         92.24069       91.21080       47.59282
O         93.20325       91.42080       46.86827
C         90.57957       92.80107       46.45134
C         90.64773       93.93240       47.44461
O         90.45095       95.07396       47.05970
O         90.92849       93.71706       48.74259
H         89.76662       91.53098       48.86293
H         90.79689       90.70226       46.13146
H         89.57269       92.81005       45.97947
H         91.32667       93.00483       45.65243
N         92.43591       90.78436       48.87817
C         93.73449       90.50118       49.45836
C         94.64058       91.70607       49.49565
O         95.75002       91.62008       48.98961
H         91.63367       90.59755       49.49264
H         94.21559       89.67040       48.89748
H         93.58266       90.15505       50.50532
N         94.23935       92.85883       50.10091
C         95.09481       94.03457       50.25323
C         95.26994       94.42903       51.72392
O         95.79973       95.49964       51.98834
C         94.56660       95.21519       49.40699
C         93.23191       95.79970       49.80074
N         92.80458       96.93353       49.20140
O         92.53935       95.27712       50.65778
H         93.28158       92.89987       50.47540
H         96.11241       93.83199       49.85225
H         94.51753       94.90989       48.33862
H         95.31889       96.02981       49.48446
H         93.38426       97.39964       48.48807
H         91.90579       97.36030       49.46614
N         94.90336       93.59077       52.73571
C         95.07034       93.89391       54.14908
C         94.00006       94.79649       54.74351
O         94.03130       94.96761       55.95396
H         94.58280       92.64221       52.50510
H         96.09129       94.29053       54.34321
H         94.98228       92.93560       54.70539
N         93.02561       95.39808       53.99691
C         91.94415       96.19747       54.58122
C         90.53961       95.77941       54.05020
O         90.57406       94.56436       53.36311
C         92.16236       97.70448       54.31795
C         93.30793       98.28162       55.15779
O         92.37044       97.95929       52.95144
H         93.04863       95.29845       52.97842
H         91.93068       96.05703       55.68564
H         91.25133       98.25707       54.63840
H         93.28859       97.66336       52.71470
H         93.40109       99.37038       54.95873
H         93.08696       98.14417       56.23834
H         94.27099       97.78550       54.91918
N         89.57349       95.74519       55.15936
C         88.18923       95.32831       54.85251
C         87.41181       96.44238       54.13323
O         87.42644       97.57826       54.58396
C         87.49826       94.90931       56.19283
C         88.31421       93.77593       56.88191
C         86.04906       94.44662       55.95167
C         87.77271       93.35080       58.25024
H         89.57063       96.65772       55.67236
H         88.19878       94.41345       54.22010
H         87.47297       95.79273       56.86871
H         89.35493       94.12405       57.05153
H         88.35491       92.88184       56.22063
H         86.03208       93.54386       55.30679
H         85.53150       94.21251       56.90277
H         85.45722       95.25062       55.47999
H         87.73463       94.22196       58.93755
H         86.76536       92.89501       58.17156
H         88.44532       92.58307       58.68837
N         86.63051       96.13969       53.05428
C         85.77510       97.08448       52.32881
C         84.32226       96.88172       52.74363
O         84.05673       96.05449       53.59535
C         85.92094       96.83406       50.80896
C         87.31042       97.09848       50.31803
O         87.74860       98.23684       50.31003
O         88.08154       96.07279       49.90677
H         86.56112       95.15533       52.78140
H         86.04077       98.13541       52.57620
H         85.23181       97.47084       50.21629
H         85.65581       95.77402       50.60485
N         83.32230       97.63741       52.20166
C         81.92264       97.50311       52.60496
C         81.34606       96.10924       52.32845
O         80.84800       95.52030       53.28149
C         81.04950       98.59965       51.95583
C         79.61321       98.49734       52.42042
C         79.28663       98.67399       53.77787
C         78.58956       98.20636       51.50252
C         77.96187       98.55543       54.20694
C         77.26571       98.08749       51.93705
C         76.95229       98.26089       53.28776
H         83.56887       98.35801       51.50829
H         81.87794       97.68363       53.70209
H         81.10518       98.52200       50.85481
H         81.44324       99.60324       52.22615
H         80.05531       98.90076       54.50565
H         78.81581       98.06095       50.45363
H         77.71883       98.68940       55.25324
H         76.48265       97.85716       51.22660
H         75.92750       98.16629       53.62259
N         81.34928       95.49210       51.09966
C         80.74188       94.18674       50.84124
C         81.52557       93.01901       51.43507
O         81.15360       91.88215       51.18614
C         80.70010       94.12026       49.31123
C         81.96732       94.84921       48.93366
C         81.92958       96.04086       49.88633
H         79.69452       94.13322       51.21373
H         80.57343       93.10404       48.87987
H         79.85196       94.75159       48.95871
H         82.82295       94.19316       49.21200
H         82.06401       95.12173       47.86171
H         82.96531       96.41005       50.01412
H         81.26159       96.83273       49.49262
N         82.58870       93.22175       52.25781
C         83.36964       92.16546       52.87349
C         82.97191       92.08131       54.33505
O         82.59004       91.00826       54.78231
C         84.86526       92.47776       52.67710
C         85.20963       92.62627       51.18116
C         86.63681       93.01079       50.93907
O         87.50548       93.12319       51.95805
O         87.02022       93.21818       49.79882
H         82.87072       94.17460       52.49332
H         83.16013       91.17846       52.40335
H         85.48309       91.67646       53.13701
H         85.09698       93.43455       53.18635
H         84.58675       93.43114       50.73979
H         84.99752       91.67409       50.64943
N         82.95391       93.19269       55.12197
C         82.46502       93.17695       56.48203
H         81.41122       92.82253       56.49785
H         83.09527       92.51475       57.10905
H         82.48860       94.20613       56.90171
H         83.24788       94.09645       54.73601
Ca        89.36728       95.11687       51.50522
O         90.19022       97.94227       51.41670
H         90.45706       98.89037       51.32101
H         89.60498       97.92650       52.21567

Ca 1.0



