%chk=holoCaM-CaMKII.loop3.water3.frame442.chk
%nprocshared=20
%mem=10GB
%nosave
#b3lyp/svp scf=(tight,noincore,xqc) Test 
#IOP(5/87=12) Density=Current Pop=(MK,readradii) iop(6/33=2) iop(6/42=6)

holoCaM-CaMKII.loop3.water3.frame442 

   0  1 
C         66.81080       71.41306       27.53002
C         66.30901       71.34700       28.94106
O         67.10215       71.44472       29.86655
H         67.91504       71.52934       27.50506
H         66.53059       70.48616       26.98811
H         66.35029       72.28611       27.01980
N         64.97536       71.20060       29.17429
C         64.38971       71.21097       30.51047
C         64.95431       70.04948       31.33819
O         64.73917       68.89308       31.00680
C         62.84513       71.22028       30.37402
C         61.95010       71.49119       31.56528
O         62.37457       71.89846       32.77850
O         60.74789       71.39249       31.38931
H         64.35188       71.13292       28.35441
H         64.68399       72.16580       30.95718
H         62.55140       70.24157       29.94011
H         62.57519       72.01353       29.64151
N         65.75867       70.32895       32.40123
C         66.47245       69.38193       33.25429
C         65.51446       68.46398       33.97359
O         65.68177       67.25384       33.91675
C         67.27337       70.21126       34.29944
C         68.13591       69.42730       35.30130
C         68.75904       70.42482       36.30118
C         69.72926       69.80245       37.31541
N         69.08018       68.82449       38.18836
H         65.90862       71.31523       32.60961
H         67.19032       68.78855       32.64441
H         66.55105       70.82723       34.87765
H         67.94576       70.90532       33.75079
H         68.93368       68.88072       34.75365
H         67.50578       68.69901       35.85305
H         67.94606       70.93872       36.85916
H         69.32655       71.19514       35.73364
H         70.13379       70.62782       37.94483
H         70.58249       69.32934       36.78294
H         69.77082       68.50413       38.90532
H         68.26512       69.26007       38.67834
H         68.76802       67.99328       37.63871
N         64.50783       68.99877       34.71372
C         63.63876       68.22759       35.59099
C         62.18345       68.26156       35.16125
O         61.36351       67.68058       35.85970
C         63.82135       68.74438       37.03741
C         63.43261       70.18636       37.27845
O         63.61595       70.71589       38.50176
O         62.95475       70.88111       36.39587
H         64.38553       70.02042       34.68189
H         63.93724       67.15613       35.58900
H         64.89497       68.63126       37.30320
H         63.22994       68.11054       37.73156
N         61.77902       68.88123       34.01689
C         60.39234       68.89521       33.59566
C         59.53249       69.66545       34.56506
O         58.59299       69.08999       35.09522
H         62.46824       69.33103       33.39885
H         60.02739       67.85053       33.48573
H         60.30839       69.36833       32.60127
N         59.78034       70.98423       34.82205
C         58.94074       71.79646       35.69873
C         58.18761       72.87122       34.92322
O         57.35221       73.53581       35.52026
C         59.76356       72.38568       36.86518
C         60.68455       73.51883       36.46942
N         60.55909       74.73384       37.05416
O         61.55503       73.34276       35.63118
H         60.57820       71.43032       34.35412
H         58.16606       71.14517       36.15687
H         60.35526       71.57207       37.33774
H         59.05320       72.76283       37.63220
H         59.84182       74.90919       37.77373
H         61.19231       75.50234       36.79571
N         58.40769       73.08401       33.59116
C         57.63949       74.01410       32.78704
C         58.49972       75.09164       32.17666
O         58.10714       75.60989       31.14009
H         59.12820       72.54980       33.08993
H         56.80435       74.48875       33.34331
H         57.18164       73.42461       31.96167
N         59.63144       75.55148       32.79111
C         60.44696       76.62266       32.22048
C         61.92473       76.28029       32.23897
O         62.30134       75.28457       32.84237
C         60.10536       77.95816       32.91410
C         60.37205       78.02210       34.40424
C         61.68459       78.05135       34.90594
C         59.29663       78.10611       35.30857
C         61.91490       78.17052       36.28113
C         59.52977       78.21597       36.68291
C         60.84165       78.25385       37.17346
O         61.08287       78.37245       38.49498
H         59.89035       75.17275       33.71539
H         60.17973       76.75433       31.14880
H         59.01922       78.12144       32.73520
H         60.63733       78.79904       32.42148
H         62.53205       78.00651       34.23673
H         58.27407       78.09055       34.95250
H         62.92933       78.20574       36.65558
H         58.69040       78.28012       37.36426
H         60.36900       78.43974       39.14527
N         62.82084       77.05584       31.55667
C         64.25770       76.78065       31.52818
C         65.06319       77.97922       32.01167
O         64.50590       79.04842       32.22356
C         64.71618       76.30110       30.11820
C         64.47420       77.36432       29.01756
C         64.01900       74.97254       29.78080
C         65.07556       76.97652       27.66407
H         62.46395       77.85803       31.01536
H         64.49169       75.95768       32.23745
H         65.80827       76.09574       30.17366
H         64.95150       78.31950       29.32232
H         63.38527       77.54316       28.88750
H         62.92246       75.10818       29.67276
H         64.42210       74.51812       28.85396
H         64.19719       74.25470       30.59885
H         64.89814       77.79373       26.93405
H         66.17109       76.82043       27.76245
H         64.60908       76.05760       27.25560
N         66.39635       77.83258       32.25975
C         67.26178       78.88154       32.79102
C         68.51600       79.04053       31.93708
O         68.65333       78.35577       30.93565
C         67.63902       78.50679       34.23403
O         68.37164       77.31210       34.25159
H         66.81167       76.89927       32.12876
H         66.72637       79.85604       32.82778
H         66.69725       78.38897       34.81776
H         68.24008       79.31427       34.70307
H         68.39717       77.01517       35.19763
N         69.49192       79.92174       32.29795
C         70.76037       80.07310       31.58584
C         71.58638       78.79692       31.62385
O         72.01249       78.33685       30.57432
C         71.58537       81.20193       32.21449
H         69.32943       80.51023       33.12928
H         70.56329       80.36101       30.52868
H         72.54334       81.32518       31.66413
H         71.02392       82.15785       32.15708
H         71.81225       80.98403       33.28034
N         71.85074       78.17626       32.81066
C         72.67669       76.97460       32.94620
C         72.22228       75.88045       32.00483
O         73.03521       75.32499       31.27962
C         72.61652       76.46427       34.39525
H         71.42165       78.57165       33.66223
H         73.73542       77.22107       32.71448
H         71.57394       76.20327       34.68307
H         73.25212       75.56083       34.51588
H         72.98678       77.24638       35.09147
N         70.90957       75.55819       31.94584
C         70.34794       74.53552       31.07077
C         70.65167       74.83904       29.61732
O         71.26308       74.01171       28.95508
C         68.83341       74.47704       31.30770
C         68.55077       74.00902       32.74231
C         67.12097       74.19824       33.07479
O         66.77697       74.87495       34.02806
O         66.21572       73.56344       32.34033
H         70.27561       76.10354       32.54934
H         70.78298       73.54087       31.32226
H         68.33758       73.78540       30.59040
H         68.41269       75.49280       31.14689
H         69.14129       74.55558       33.50170
H         68.81540       72.93265       32.82530
N         70.26817       76.01530       29.05582
C         70.55851       76.34804       27.68024
H         71.65702       76.34734       27.51593
H         70.07747       75.61203       27.00239
H         70.16526       77.36061       27.44768
H         69.76468       76.70414       29.62443
Ca        64.21037       73.08163       33.14667
O         66.35328       73.19856       36.11660
H         66.21731       72.74995       36.98682
H         67.33689       73.26509       36.01997
O         64.42547       76.13889       35.40771
H         64.83874       76.74703       36.07016
H         64.72787       76.49099       34.53505
O         63.84021       74.05853       37.49909
H         63.27915       73.40958       37.99223
H         63.78337       74.89122       38.03101

Ca 1.0



