%chk=holoCaM.loop2.water1.frame26.chk
%nprocshared=20
%mem=10GB
%nosave
#b3lyp/svp scf=(tight,noincore,xqc) Test 
#IOP(5/87=12) Density=Current Pop=(MK,readradii) iop(6/33=2) iop(6/42=6)

holoCaM.loop2.water1.frame26 

   -2  1 
C         82.89749       87.23143       -6.40671
C         82.55116       86.10532       -7.33603
O         81.39857       85.70648       -7.37019
H         83.96258       87.52882       -6.50881
H         82.26793       88.11256       -6.65582
H         82.70588       86.93206       -5.35632
N         83.50154       85.55634       -8.14037
C         83.22300       84.54420       -9.14942
C         84.00199       83.27152       -8.84976
O         85.21193       83.32951       -8.68089
C         83.58266       85.14250      -10.51618
C         83.31384       84.19946      -11.64367
O         84.22182       83.89146      -12.39353
O         82.07486       83.71450      -11.85340
H         84.46991       85.90686       -8.07167
H         82.13761       84.29981       -9.17804
H         84.65458       85.44047      -10.52745
H         82.96688       86.05323      -10.68077
N         83.34850       82.07449       -8.79120
C         83.97772       80.79789       -8.46880
C         83.95891       79.82627       -9.64635
O         84.42789       78.70874       -9.47905
C         83.24405       80.18530       -7.26946
H         82.34088       82.06219       -8.99385
H         85.04200       80.94530       -8.18367
H         83.28068       80.88065       -6.40421
H         82.17959       79.98967       -7.52348
H         83.71610       79.22646       -6.96643
N         83.47423       80.18372      -10.87125
C         83.46419       79.30046      -12.03677
C         84.35048       79.83529      -13.15572
O         84.42703       79.19420      -14.19573
C         82.03262       79.24489      -12.59092
C         81.02903       78.67927      -11.64263
O         80.02130       79.44025      -11.16925
O         81.09008       77.50246      -11.32648
H         83.10336       81.13497      -11.00820
H         83.82085       78.27950      -11.77794
H         81.98909       78.64913      -13.52913
H         81.74403       80.27903      -12.82303
N         84.99593       81.02938      -13.04887
C         85.69247       81.66495      -14.15027
C         84.76748       81.90370      -15.32794
O         85.17860       81.63027      -16.44666
H         84.95748       81.55827      -12.16924
H         86.57548       81.06357      -14.46009
H         86.06620       82.65102      -13.80133
N         83.48917       82.36515      -15.15029
C         82.56619       82.60562      -16.26181
C         81.94357       84.00396      -16.22980
O         81.19625       84.32461      -17.14369
C         81.48655       81.50444      -16.29543
C         80.38684       81.68130      -15.28004
N         79.09422       81.67978      -15.67076
O         80.65232       81.83092      -14.10138
H         83.14181       82.48452      -14.18923
H         83.12518       82.50834      -17.21752
H         81.98173       80.51934      -16.14991
H         81.02296       81.49035      -17.30555
H         78.83100       81.55795      -16.65913
H         78.35040       81.78474      -14.97171
N         82.20223       84.89231      -15.22294
C         81.67538       86.24660      -15.19061
C         80.17931       86.37561      -14.95158
O         79.72216       87.50950      -14.97974
H         82.85854       84.64440      -14.47387
H         81.94320       86.74907      -16.14511
H         82.17541       86.80445      -14.36811
N         79.35297       85.31434      -14.69319
C         77.91020       85.46797      -14.48285
C         77.52892       85.01186      -13.07364
O         77.78397       83.87536      -12.70234
C         77.12908       84.72393      -15.58458
C         75.61684       84.94670      -15.46221
O         77.55991       85.19444      -16.83700
H         79.74645       84.36542      -14.64483
H         77.62540       86.53711      -14.59206
H         77.33647       83.64188      -15.49832
H         77.37248       84.47868      -17.49896
H         75.09152       84.40597      -16.27774
H         75.23812       84.56292      -14.49191
H         75.37666       86.02870      -15.54336
N         76.92368       85.89793      -12.23403
C         76.58516       85.65940      -10.82838
C         75.53823       84.55437      -10.63852
O         74.42484       84.69058      -11.12587
C         76.10340       87.01976      -10.20043
C         77.30876       88.00058      -10.10695
C         75.45506       86.84115       -8.82331
C         76.95057       89.39758       -9.59382
H         76.72912       86.83503      -12.61757
H         77.50521       85.35378      -10.28255
H         75.31509       87.45430      -10.85618
H         77.76214       88.13608      -11.10997
H         78.08769       87.56940       -9.43942
H         74.54815       86.21469       -8.90919
H         76.18178       86.39358       -8.12236
H         75.08344       87.80154       -8.42012
H         76.17972       89.86108      -10.24432
H         76.58902       89.37180       -8.54625
H         77.85965       90.03461       -9.60556
N         75.81846       83.47575       -9.83714
C         74.80283       82.54545       -9.32918
C         74.15205       83.13472       -8.07790
O         74.56490       84.19272       -7.64214
C         75.44291       81.19922       -8.90363
C         76.17390       80.49930      -10.00251
O         77.26017       81.06628      -10.54557
O         75.82427       79.38860      -10.36904
H         76.75569       83.41754       -9.41855
H         74.03801       82.35540      -10.11409
H         74.64660       80.51506       -8.54317
H         76.16114       81.36818       -8.07008
N         73.15791       82.48422       -7.40955
C         72.59145       82.97645       -6.15190
C         73.64225       83.11387       -5.03978
O         73.74057       84.21032       -4.50775
C         71.41331       82.08915       -5.69633
C         70.80574       82.55877       -4.38938
C         70.29283       83.86339       -4.25341
C         70.75144       81.68747       -3.28702
C         69.74736       84.28551       -3.03652
C         70.19727       82.11176       -2.07546
C         69.69826       83.41016       -1.94920
H         72.79565       81.60228       -7.80344
H         72.16755       83.98731       -6.34523
H         71.75468       81.03772       -5.59983
H         70.62821       82.11234       -6.48270
H         70.31923       84.55865       -5.08205
H         71.13551       80.67810       -3.36388
H         69.36216       85.29226       -2.93601
H         70.15613       81.43330       -1.23322
H         69.27313       83.73756       -1.00904
N         74.46431       82.09664       -4.61905
C         75.45486       82.24315       -3.55242
C         76.45423       83.35276       -3.84063
O         76.77863       84.09904       -2.92711
C         76.09781       80.84932       -3.45633
C         75.92275       80.28716       -4.85018
C         74.51612       80.76489       -5.19095
H         74.98623       82.46658       -2.56805
H         77.12836       80.82025       -3.04068
H         75.44912       80.22248       -2.80299
H         76.65045       80.78440       -5.52400
H         76.07011       79.19018       -4.94342
H         74.39273       80.72036       -6.28167
H         73.75436       80.13320       -4.68384
N         76.94195       83.55651       -5.09081
C         77.88122       84.62264       -5.43702
C         77.27656       85.97706       -5.09917
O         77.91203       86.74070       -4.38576
C         78.31401       84.46609       -6.92216
C         79.10764       83.14098       -7.03606
C         79.54283       82.62949       -8.37550
O         79.37258       83.26467       -9.55079
O         80.04856       81.51929       -8.39533
H         76.59491       82.94566       -5.84219
H         78.80945       84.51849       -4.82949
H         78.95474       85.31360       -7.23655
H         77.41461       84.45692       -7.56561
H         78.48582       82.31719       -6.63708
H         80.01487       83.21391       -6.39765
N         76.01753       86.30204       -5.49898
C         75.33939       87.52716       -5.12531
H         74.42448       87.27240       -4.54819
H         75.97167       88.19022       -4.49971
H         75.03829       88.08128       -6.03640
H         75.48651       85.62836       -6.05590
Ca        79.83260       81.71635      -11.15960
O         76.89273       80.88565      -13.22161
H         76.12696       81.37790      -13.60971
H         76.54280       79.98088      -13.02752

Ca 1.0



