%chk=holoCaM-CaMKII.loop4.water2.frame135.chk
%nprocshared=20
%mem=10GB
%nosave
#b3lyp/svp scf=(tight,noincore,xqc) Test 
#IOP(5/87=12) Density=Current Pop=(MK,readradii) iop(6/33=2) iop(6/42=6)

holoCaM-CaMKII.loop4.water2.frame135 

   -3  1 
C         37.07782       32.11837       60.44858
C         38.33942       31.46791       59.94501
O         38.84834       31.85432       58.90544
H         36.26938       31.35948       60.52473
H         37.25435       32.54814       61.45857
H         36.74008       32.93102       59.77165
N         38.89182       30.45233       60.65917
C         40.12313       29.73554       60.31234
C         40.03775       29.06592       58.93726
O         39.10955       28.30671       58.69976
C         40.39909       28.70692       61.43469
C         41.51008       27.73250       61.15886
O         41.22875       26.54774       61.08213
O         42.79391       28.08725       60.95945
H         38.39591       30.18085       61.52405
H         40.96665       30.44363       60.30266
H         39.47226       28.10637       61.57393
H         40.59754       29.24349       62.38656
N         41.01869       29.28587       58.00119
C         41.04996       28.68311       56.66029
C         42.24517       27.73778       56.44369
O         42.32035       27.14853       55.37449
C         41.08898       29.79259       55.55332
C         42.42122       30.60293       55.58167
C         39.86017       30.70906       55.66086
C         42.58027       31.60066       54.43376
H         41.79310       29.90750       58.26084
H         40.13309       28.07214       56.51255
H         41.03181       29.27919       54.56753
H         43.28310       29.90695       55.50772
H         42.51886       31.15195       56.53151
H         39.81782       31.42126       54.81212
H         38.92969       30.10473       55.62693
H         39.88402       31.28826       56.60560
H         41.80911       32.39536       54.47302
H         43.57250       32.09501       54.51570
H         42.52916       31.07475       53.45735
N         43.23769       27.59000       57.36860
C         44.46559       26.80575       57.15170
C         44.64222       25.67353       58.16991
O         45.64240       24.97331       58.09236
C         45.71616       27.73700       57.06948
C         45.95237       28.63509       58.25812
O         45.05454       28.63201       59.25137
O         46.88798       29.41769       58.26643
H         43.12771       28.09073       58.25309
H         44.42557       26.29910       56.16293
H         45.58864       28.39703       56.18278
H         46.62083       27.11546       56.89440
N         43.67966       25.37176       59.08655
C         43.71828       24.20111       59.95230
C         44.77497       24.24204       61.03033
O         45.54066       23.29546       61.14597
H         42.81869       25.93231       59.11507
H         43.82676       23.28160       59.33496
H         42.74342       24.13088       60.48007
N         44.83193       25.28813       61.89796
C         45.69141       25.32318       63.07772
C         44.89328       25.64403       64.34837
O         45.50925       25.80033       65.39392
C         46.89256       26.26147       62.83487
C         46.54251       27.65064       62.39862
O         45.84840       28.46456       63.20405
O         46.92947       28.06347       61.31794
H         44.22379       26.10036       61.72123
H         46.15623       24.32880       63.26173
H         47.51284       25.80097       62.03410
H         47.52144       26.31191       63.75020
N         43.52319       25.68950       64.35989
C         42.73897       25.92360       65.56726
C         42.78289       27.35178       66.07531
O         42.15542       27.61400       67.09253
H         42.99221       25.47809       63.50415
H         43.06812       25.21876       66.36162
H         41.67084       25.70575       65.34737
N         43.46536       28.33224       65.42074
C         43.50003       29.72733       65.84307
C         42.97077       30.62453       64.73873
O         42.75226       30.16625       63.62460
C         44.95324       30.13466       66.16080
C         45.53036       29.39375       67.37632
C         46.99633       29.69543       67.59768
N         47.64259       29.15279       68.65437
O         47.61077       30.41866       66.82565
H         43.97424       28.09236       64.56573
H         42.86359       29.88510       66.74184
H         45.01503       31.22589       66.36659
H         45.57440       29.91612       65.26914
H         45.42765       28.29666       67.23977
H         44.95649       29.69766       68.27876
H         47.14344       28.54503       69.31990
H         48.64386       29.34365       68.80964
N         42.72916       31.93702       65.00222
C         42.28079       32.90611       64.01116
C         43.23970       34.08296       64.03190
O         43.43820       34.65810       65.09493
C         40.82179       33.35259       64.31023
C         40.35189       34.44204       63.32825
C         39.86071       32.15569       64.20242
H         42.85596       32.26969       65.97175
H         42.26831       32.46070       62.99819
H         40.76413       33.76649       65.34100
H         40.39591       34.07440       62.28111
H         39.30656       34.74273       63.55292
H         40.98003       35.35066       63.41804
H         39.88676       31.72707       63.17621
H         40.13187       31.36029       64.92639
H         38.81935       32.47554       64.42058
N         43.81807       34.53869       62.88250
C         44.65765       35.73379       62.83995
C         43.85744       36.89404       62.27963
O         42.68584       36.71980       61.98923
C         45.99242       35.50303       62.07876
C         45.91044       35.54199       60.56578
N         45.28227       34.58378       59.85584
O         46.45482       36.45968       59.96889
H         43.55474       34.08787       61.99890
H         44.94677       36.01705       63.87554
H         46.48477       34.57016       62.42326
H         46.66930       36.33529       62.37001
H         44.85368       33.77740       60.31938
H         45.25825       34.63841       58.82666
N         44.42049       38.11627       62.10231
C         43.68749       39.26649       61.58293
C         43.04207       38.97559       60.23457
O         41.83439       39.12921       60.11621
C         44.65308       40.46490       61.44935
C         44.02014       41.64843       60.75808
C         42.93244       42.32777       61.32906
C         44.51475       42.06610       59.51046
C         42.35149       43.41073       60.65980
C         43.93146       43.14314       58.84332
C         42.84728       43.82103       59.41626
O         42.27572       44.86342       58.78092
H         45.41594       38.23301       62.34548
H         42.87836       39.53403       62.29972
H         45.53239       40.12952       60.85612
H         45.02954       40.76456       62.45100
H         42.53499       42.01934       62.28783
H         45.34718       41.55101       59.04630
H         41.51341       43.93000       61.10667
H         44.32277       43.44644       57.88042
H         42.59086       45.17396       57.91978
N         43.79635       38.61283       59.16272
C         43.25441       38.49054       57.81216
C         42.11905       37.47830       57.73211
O         41.15097       37.73911       57.03131
C         44.40275       38.22450       56.81776
C         43.95900       38.29566       55.35146
C         45.15497       38.27536       54.44063
O         45.37469       39.22004       53.69838
O         45.99918       37.22643       54.44801
H         44.80874       38.48003       59.30570
H         42.83028       39.48299       57.53845
H         44.89327       37.24888       57.03000
H         45.15276       39.03349       56.97552
H         43.40167       39.24382       55.18244
H         43.29012       37.44283       55.11083
N         42.12816       36.34443       58.48388
C         40.99813       35.41561       58.54025
C         39.76526       36.09829       59.10729
O         38.75834       36.16349       58.41537
C         41.38569       34.18366       59.37825
C         42.35599       33.31531       58.56573
C         42.95502       32.18998       59.34468
O         43.72500       31.42366       58.79151
O         42.70146       32.04247       60.65521
H         42.96065       36.15422       59.06359
H         40.74598       35.06428       57.51337
H         40.49662       33.56689       59.61894
H         41.83473       34.51877       60.33818
H         43.19125       33.92656       58.17628
H         41.79410       32.90696       57.70113
N         39.76862       36.63796       60.35407
C         38.61900       37.31638       60.90996
H         37.75879       36.61755       60.97677
H         38.85726       37.68881       61.92934
H         38.34749       38.18423       60.27167
H         40.61453       36.57499       60.92637
Ca        44.31563       29.75276       61.04624
O         46.73331       31.85103       59.87848
H         46.22415       31.85657       59.03022
H         47.62304       32.20369       59.62777
O         46.29468       31.41118       63.16098
H         47.03808       30.93495       63.60952
H         46.73589       32.15503       62.68169

Ca 1.0



