%chk=holoCaM.loop3.water3.frame352.chk
%nprocshared=20
%mem=10GB
%nosave
#b3lyp/svp scf=(tight,noincore,xqc) Test 
#IOP(5/87=12) Density=Current Pop=(MK,readradii) iop(6/33=2) iop(6/42=6)

holoCaM.loop3.water3.frame352 

   0  1 
C          4.94936       33.07107       82.47137
C          5.05203       34.41332       81.81840
O          4.03168       34.98127       81.45613
H          3.88781       32.75274       82.54690
H          5.51273       32.32404       81.87608
H          5.37795       33.12699       83.49474
N          6.26927       35.00371       81.66892
C          6.42090       36.33795       81.10909
C          6.07979       36.32824       79.62801
O          6.84110       35.78348       78.83999
C          7.85374       36.83828       81.36641
C          8.07862       38.28317       81.05097
O          9.28124       38.80542       81.32356
O          7.19471       38.99626       80.60224
H          7.09966       34.50767       82.03021
H          5.72757       37.00687       81.66366
H          8.58361       36.21823       80.80122
H          8.07641       36.71598       82.44803
N          4.90004       36.85102       79.19337
C          4.46527       36.77489       77.80641
C          5.16078       37.82456       76.95690
O          5.84984       37.45063       76.01781
C          2.92664       36.90616       77.69132
C          2.12892       35.84380       78.48473
C          2.47823       34.39548       78.10000
C          1.58475       33.38603       78.83406
N          1.95954       32.01354       78.49092
H          4.24169       37.20158       79.89804
H          4.72268       35.77236       77.40209
H          2.64833       36.81731       76.61803
H          2.60148       37.90807       78.04569
H          1.04936       36.02039       78.28422
H          2.29219       35.97698       79.57498
H          3.53265       34.18158       78.37400
H          2.35073       34.26109       77.00398
H          0.52226       33.55879       78.55191
H          1.68420       33.52539       79.93366
H          2.94331       31.82470       78.79293
H          1.32248       31.34841       78.98587
H          1.87311       31.86108       77.45970
N          5.00409       39.16155       77.20370
C          5.59558       40.19392       76.34508
C          7.11879       40.18589       76.33824
O          7.69341       40.86945       75.50162
C          5.09835       41.60721       76.72980
C          5.45711       41.96848       78.14480
O          4.47757       42.22991       79.01950
O          6.61840       41.98957       78.51706
H          4.40230       39.44655       77.99127
H          5.25077       39.99089       75.30647
H          3.99163       41.63723       76.62200
H          5.52541       42.36478       76.03814
N          7.84344       39.47358       77.24494
C          9.29159       39.43729       77.23697
C          9.92437       40.78881       77.48757
O         10.69577       41.23444       76.64981
H          7.36462       38.91604       77.96494
H          9.63714       39.02514       76.26343
H          9.64034       38.74948       78.03762
N          9.70535       41.45704       78.65806
C         10.46257       42.65084       79.04887
C         11.39623       42.36002       80.22799
O         12.17507       43.23367       80.58319
C          9.54981       43.86803       79.35355
C          8.60086       43.72501       80.52529
N          7.94953       44.81065       81.00068
O          8.41985       42.64515       81.05968
H          9.03991       41.04322       79.32667
H         11.12742       42.95796       78.21257
H          8.96022       44.14421       78.45341
H         10.22457       44.72210       79.58253
H          8.09341       45.73974       80.57964
H          7.32171       44.72589       81.81392
N         11.37200       41.16238       80.88151
C         12.23614       40.79799       81.98967
C         11.48204       40.67097       83.30252
O         12.09026       40.22629       84.26543
H         10.70730       40.44704       80.58997
H         13.04521       41.54365       82.14477
H         12.71752       39.82929       81.73542
N         10.20837       41.15026       83.45483
C          9.52883       41.24211       84.74571
C          8.10853       40.69203       84.67857
O          7.63669       40.39798       83.59063
C          9.48282       42.72616       85.19404
C         10.86398       43.33159       85.31506
C         11.61534       43.65511       84.16933
C         11.41702       43.57544       86.58174
C         12.90308       44.18085       84.28924
C         12.70658       44.10105       86.70050
C         13.45665       44.39928       85.55354
O         14.70620       44.89436       85.65435
H          9.74662       41.58802       82.65407
H         10.08668       40.66207       85.51268
H          8.98171       42.77029       86.18348
H          8.88095       43.34509       84.49325
H         11.20872       43.50112       83.17900
H         10.85790       43.34137       87.47887
H         13.47169       44.41374       83.39729
H         13.12339       44.26929       87.68485
H         15.12984       45.04825       86.51050
N          7.35045       40.59688       85.81759
C          5.94230       40.18689       85.85405
C          5.28090       40.67648       87.15002
O          5.65657       40.24623       88.23059
C          5.71146       38.63984       85.66842
C          6.50112       37.78058       86.69878
C          6.00061       38.17108       84.23656
C          6.26901       36.27232       86.56968
H          7.77590       40.91980       86.69953
H          5.41347       40.71543       85.03413
H          4.62144       38.46488       85.81558
H          6.19544       38.04312       87.72691
H          7.59019       37.97768       86.59707
H          5.62366       37.14017       84.08089
H          5.47050       38.81096       83.50038
H          7.08745       38.15847       84.03499
H          5.18778       36.03695       86.66360
H          6.65422       35.88410       85.60472
H          6.82072       35.74617       87.37718
N          4.27776       41.60265       87.10636
C          3.54549       42.05286       88.29299
C          2.66032       40.93780       88.84561
O          2.64951       39.85443       88.28764
C          2.67860       43.27912       87.94007
O          1.68570       42.94437       87.00569
H          4.02822       42.00811       86.19328
H          4.27307       42.38112       89.06760
H          3.33465       44.09802       87.56009
H          2.18126       43.68817       88.84357
H          1.93852       43.36147       86.14300
N          1.86178       41.14717       89.93144
C          0.91498       40.15345       90.43971
C         -0.14805       39.82566       89.40294
O         -0.36470       38.65478       89.12499
C          0.22643       40.67340       91.70584
H          1.91357       42.06075       90.40642
H          1.46093       39.22583       90.72509
H         -0.47623       39.90556       92.09726
H          0.98521       40.88106       92.48937
H         -0.34140       41.60526       91.49850
N         -0.83505       40.82576       88.77722
C         -1.86961       40.60627       87.76541
C         -1.37138       39.70123       86.65805
O         -2.03179       38.72193       86.34085
C         -2.31040       41.95085       87.16971
H         -0.58144       41.79833       89.01199
H         -2.75912       40.13422       88.23817
H         -2.71216       42.60919       87.96891
H         -1.45400       42.46752       86.68357
H         -3.10734       41.79477       86.41136
N         -0.17233       39.94866       86.07020
C          0.42802       39.10260       85.04342
C          0.51859       37.66289       85.51857
O         -0.02710       36.79021       84.85655
C          1.81496       39.66906       84.66796
C          1.64144       40.99888       83.91809
C          2.93767       41.66676       83.59356
O          3.08327       42.85920       83.80720
O          3.88641       40.98990       82.93533
H          0.35811       40.76281       86.41327
H         -0.21079       39.10836       84.13050
H          2.34808       38.96052       83.99634
H          2.42794       39.80560       85.58477
H          1.00674       41.71665       84.47732
H          1.12800       40.77401       82.95755
N          1.14707       37.34163       86.67799
C          1.18514       35.99026       87.18919
H          0.14936       35.61874       87.34709
H          1.71553       35.32684       86.47517
H          1.71621       35.97162       88.16472
H          1.58325       38.08105       87.23371
Ca         4.83636       42.04395       81.21957
O          4.76992       45.10000       81.32920
H          4.87482       44.76885       80.40234
H          3.87466       44.78654       81.60842
O          6.22401       43.30713       84.31612
H          5.56357       43.77417       83.74826
H          6.38306       43.92448       85.07346
O          3.60441       39.23694       80.97325
H          2.86791       39.48536       80.36158
H          3.19236       38.61678       81.62649

Ca 1.0



