%chk=holoCaM.loop3.water2.frame295.chk
%nprocshared=20
%mem=10GB
%nosave
#b3lyp/svp scf=(tight,noincore,xqc) Test 
#IOP(5/87=12) Density=Current Pop=(MK,readradii) iop(6/33=2) iop(6/42=6)

holoCaM.loop3.water2.frame295 

   0  1 
C         28.66599       42.34488       75.66670
C         28.97493       43.71216       76.19719
O         28.62473       44.01230       77.32938
H         29.61774       41.82555       75.42194
H         28.11739       41.74128       76.42001
H         28.05118       42.42790       74.74666
N         29.65874       44.59211       75.41822
C         30.08660       45.90928       75.85978
C         29.46174       46.95701       74.96049
O         30.14700       47.53579       74.13070
C         31.62522       45.93717       75.82848
C         32.21797       47.18333       76.41667
O         33.42837       47.28000       76.47641
O         31.44785       48.17619       76.90328
H         29.92826       44.29761       74.46584
H         29.77634       46.10907       76.90956
H         31.99112       45.80690       74.78672
H         32.00512       45.08695       76.42591
N         28.12997       47.21908       75.04769
C         27.45246       48.15795       74.15723
C         27.80621       49.62832       74.39539
O         27.32795       50.43688       73.61119
C         25.92347       47.94532       74.20354
C         25.55906       46.53932       73.69051
C         24.04286       46.33571       73.60217
C         23.66664       44.98168       72.97195
N         24.10390       43.84096       73.77964
H         27.57611       46.67987       75.73108
H         27.76350       47.92597       73.11318
H         25.43895       48.68367       73.52701
H         25.53674       48.10644       75.23393
H         26.00241       45.77355       74.35766
H         25.98531       46.41292       72.67061
H         23.61862       47.13311       72.95318
H         23.58578       46.42608       74.61115
H         24.10472       44.90685       71.95119
H         22.55997       44.94396       72.86948
H         25.14613       43.79013       73.82408
H         23.70564       43.90904       74.74404
H         23.75929       42.96037       73.33360
N         28.64940       50.06397       75.38602
C         29.06907       51.46861       75.49159
C         30.55034       51.64929       75.11034
O         31.01560       52.78004       75.08162
C         28.69350       52.08637       76.85749
C         29.55278       51.60635       77.97803
O         29.57103       50.31614       78.33926
O         30.29877       52.39239       78.54192
H         29.05498       49.38339       76.04230
H         28.50765       52.07723       74.75118
H         27.62289       51.90013       77.08899
H         28.83311       53.18798       76.77893
N         31.31137       50.58983       74.69773
C         32.60925       50.69904       74.04897
C         33.79880       51.04643       74.91693
O         34.87173       51.17484       74.34298
H         30.89841       49.65772       74.68832
H         32.52441       51.44156       73.22482
H         32.84789       49.71948       73.57913
N         33.73082       51.23222       76.26722
C         34.90003       51.70214       77.01862
C         36.03780       50.67485       77.13403
O         37.10398       51.05454       77.59918
C         34.47406       52.25246       78.40256
C         34.29268       51.20358       79.51093
N         33.58033       51.74561       80.65979
O         33.70995       50.01819       79.07256
H         32.81935       51.14747       76.74029
H         35.27742       52.58678       76.45610
H         33.55004       52.85712       78.26749
H         35.26338       52.94028       78.77540
H         34.11407       52.56571       81.02611
H         33.57377       51.01850       81.40926
N         35.87467       49.35930       76.78814
C         36.91136       48.33519       76.92926
C         36.62344       47.32044       78.03997
O         37.46392       46.46803       78.27791
H         34.96183       49.05615       76.43514
H         37.88437       48.80575       77.18791
H         37.04524       47.81610       75.95582
N         35.50518       47.41440       78.81544
C         35.27085       46.68140       80.05801
C         33.85105       46.14780       80.15243
O         32.91815       46.90593       79.92857
C         35.40296       47.68584       81.22276
C         36.81931       48.10792       81.49031
C         37.23680       49.42898       81.26604
C         37.72579       47.17797       82.02262
C         38.54491       49.81332       81.57533
C         39.02722       47.56627       82.34253
C         39.44098       48.88763       82.12270
O         40.69053       49.27908       82.44174
H         34.83147       48.14017       78.58985
H         36.00122       45.85871       80.21427
H         35.02628       47.23935       82.17017
H         34.76509       48.56945       81.00490
H         36.55323       50.16133       80.85765
H         37.41467       46.15812       82.21466
H         38.85787       50.83494       81.40167
H         39.70768       46.84144       82.77086
H         41.32936       48.67436       82.84570
N         33.62186       44.89425       80.65125
C         32.29370       44.43808       81.05927
C         32.28776       44.16382       82.55938
O         32.99374       43.27949       83.01935
C         31.79704       43.21050       80.23377
C         32.73007       41.96956       80.31651
C         31.58370       43.64705       78.77839
C         32.16891       40.73372       79.61052
H         34.42577       44.28049       80.84679
H         31.54611       45.24091       80.88573
H         30.80117       42.92553       80.64239
H         32.86502       41.66137       81.36841
H         33.72763       42.20833       79.89039
H         32.55565       43.91464       78.31599
H         31.10131       42.84916       78.18089
H         30.90714       44.52694       78.73880
H         31.17986       40.46430       80.03937
H         32.07025       40.89258       78.51891
H         32.86290       39.88001       79.76164
N         31.50329       44.90270       83.39743
C         31.36375       44.58432       84.81773
C         30.59152       43.27964       84.98284
O         30.16568       42.70959       83.99056
C         30.63540       45.72968       85.55101
O         29.34717       45.90963       85.03221
H         30.97361       45.69692       83.01174
H         32.37396       44.49354       85.27463
H         31.22254       46.66604       85.42143
H         30.57091       45.50061       86.63781
H         28.93187       46.63584       85.56586
N         30.33981       42.76020       86.21573
C         29.48960       41.58869       86.41854
C         28.08249       41.86868       85.91687
O         27.54085       41.06377       85.17293
C         29.43467       41.21805       87.90319
H         30.73519       43.23586       87.04115
H         29.91566       40.71061       85.88176
H         30.45661       40.98249       88.26927
H         29.01656       42.04973       88.50852
H         28.80027       40.31574       88.04377
N         27.45539       43.03096       86.25976
C         26.11390       43.40597       85.81962
C         25.96678       43.31919       84.31147
O         25.04049       42.66431       83.85349
C         25.78785       44.82784       86.29355
H         27.97702       43.69907       86.84862
H         25.37314       42.71856       86.28617
H         25.85251       44.88292       87.40143
H         26.50128       45.56120       85.86009
H         24.75688       45.10860       85.98993
N         26.86524       43.91749       83.47802
C         26.78948       43.81937       82.02092
C         26.75146       42.36261       81.59044
O         25.80485       41.97376       80.92034
C         27.97714       44.54414       81.34447
C         27.91923       46.06789       81.54679
C         29.04186       46.76156       80.82854
O         29.90672       47.53117       81.51397
O         29.16129       46.65402       79.61840
H         27.65216       44.42520       83.90399
H         25.85073       44.30328       81.66748
H         27.92909       44.34737       80.25029
H         28.94051       44.14290       81.72892
H         27.97162       46.31739       82.62690
H         26.95893       46.45574       81.14432
N         27.72608       41.49440       81.97444
C         27.72250       40.08399       81.64525
H         28.65629       39.83031       81.10293
H         27.67965       39.49131       82.58382
H         26.85584       39.79747       81.01362
H         28.49796       41.83823       82.55416
Ca        31.48969       49.92641       79.37439
O         29.59090       50.95299       81.58532
H         29.21621       50.28254       82.21006
H         30.39798       51.29754       82.04407
O         32.45209       48.71722       82.32051
H         31.86322       49.30482       82.85613
H         32.62099       47.93390       82.90176

Ca 1.0



