%chk=holoCaM-CaMKII.loop4.water1.frame305.chk
%nprocshared=20
%mem=10GB
%nosave
#b3lyp/svp scf=(tight,noincore,xqc) Test 
#IOP(5/87=12) Density=Current Pop=(MK,readradii) iop(6/33=2) iop(6/42=6)

holoCaM-CaMKII.loop4.water1.frame305 

   -3  1 
C         27.53325       31.05999       56.61977
C         26.22191       30.44354       56.24298
O         25.71899       30.75198       55.17085
H         28.29267       30.79001       55.85445
H         27.42879       32.16343       56.65572
H         27.88406       30.69486       57.60711
N         25.61861       29.53077       57.05770
C         24.42670       28.81430       56.63832
C         23.17387       29.59492       56.99184
O         22.93516       29.86698       58.16057
C         24.38581       27.41622       57.25837
C         23.39719       26.54048       56.55052
O         23.26175       25.38909       56.91808
O         22.74204       26.96481       55.44807
H         26.09291       29.24808       57.92938
H         24.51289       28.65244       55.53873
H         24.16249       27.47735       58.34603
H         25.37731       26.92857       57.13148
N         22.34222       30.00862       56.00433
C         21.18390       30.86549       56.22156
C         19.98790       30.09984       56.79126
O         19.35501       30.63224       57.69302
C         20.84722       31.64019       54.90840
C         22.07858       32.43354       54.36197
C         19.65195       32.59227       55.09263
C         22.67491       33.47654       55.31729
H         22.60986       29.77926       55.03743
H         21.44766       31.65846       56.95452
H         20.55695       30.90710       54.12650
H         21.79035       32.94419       53.41831
H         22.89576       31.73579       54.10150
H         19.84982       33.34112       55.88701
H         19.44263       33.12646       54.14082
H         18.73749       32.02669       55.36490
H         21.93305       34.25682       55.57920
H         23.06030       33.00372       56.24416
H         23.53699       33.97324       54.82405
N         19.60215       28.87298       56.31816
C         18.36968       28.20038       56.75701
C         18.60144       26.97673       57.64615
O         17.62152       26.38833       58.08341
C         17.47762       27.88174       55.53470
C         18.01756       26.83028       54.60116
O         17.38943       26.53926       53.59640
O         19.16339       26.18232       54.86815
H         20.19027       28.41221       55.61001
H         17.77605       28.89699       57.38852
H         17.32396       28.82254       54.96248
H         16.48376       27.53215       55.88945
N         19.84889       26.58137       58.02522
C         20.08976       25.54393       59.01819
C         19.71767       24.14265       58.58612
O         18.95101       23.49482       59.28509
H         20.67053       27.09665       57.68018
H         19.55773       25.80825       59.95971
H         21.17634       25.52437       59.24868
N         20.29599       23.58268       57.48726
C         20.16469       22.16509       57.13042
C         21.52595       21.45369       57.13141
O         21.54442       20.24537       56.94780
C         19.37818       22.00803       55.80280
C         19.98375       22.70591       54.62071
O         19.33710       22.86090       53.59796
O         21.21877       23.20593       54.70828
H         20.89061       24.19122       56.90843
H         19.55937       21.64028       57.90118
H         18.38317       22.47062       55.97773
H         19.21974       20.93708       55.55267
N         22.69793       22.12531       57.35701
C         24.00484       21.49632       57.47486
C         24.94501       21.85737       56.34274
O         26.11419       21.50878       56.44396
H         22.69214       23.13958       57.48828
H         23.93383       20.38908       57.50821
H         24.44770       21.83121       58.43873
N         24.50809       22.46845       55.20263
C         25.36068       22.71121       54.04263
C         25.26536       24.14491       53.55658
O         24.42803       24.89716       54.03339
C         25.04466       21.66647       52.94016
C         23.57045       21.56546       52.48934
C         23.09690       22.73082       51.66737
N         23.64492       22.98214       50.45882
O         22.17961       23.42845       52.06954
H         23.51218       22.69389       55.11491
H         26.42571       22.55587       54.32478
H         25.29816       20.67614       53.37750
H         25.70856       21.81025       52.06119
H         22.91586       21.41800       53.37316
H         23.45435       20.65919       51.85729
H         24.39734       22.38772       50.08237
H         23.28943       23.75754       49.88688
N         26.15959       24.60792       52.64105
C         26.18796       25.97842       52.14074
C         26.20998       25.93389       50.62233
O         27.08129       25.27859       50.06395
C         27.43457       26.72241       52.69771
C         27.48212       28.18229       52.20841
C         27.42970       26.72407       54.23739
H         26.90177       23.96569       52.31927
H         25.29765       26.54824       52.49021
H         28.35574       26.20277       52.35319
H         28.38658       28.69104       52.60524
H         27.52802       28.23269       51.10142
H         26.58656       28.74168       52.55545
H         28.32887       27.24844       54.62534
H         26.52433       27.23791       54.62776
H         27.44981       25.68855       54.63575
N         25.30979       26.64192       49.88771
C         25.28889       26.65611       48.42843
C         25.77698       27.99972       47.91163
O         26.20369       28.82469       48.70528
C         23.87499       26.27040       47.92982
C         22.79414       27.24438       48.33513
N         21.78678       26.86830       49.15520
O         22.81898       28.38423       47.90521
H         24.63109       27.23788       50.38105
H         25.98980       25.89763       48.01658
H         23.64197       25.26629       48.32894
H         23.86246       26.17448       46.82424
H         21.74236       25.91432       49.53959
H         21.04978       27.54174       49.41340
N         25.78480       28.26944       46.57796
C         26.24330       29.53223       46.00027
C         25.40710       30.70826       46.48751
O         25.98085       31.69772       46.91654
C         26.21586       29.42706       44.46130
C         26.71516       30.66731       43.75467
C         28.00392       31.17561       44.00201
C         25.89487       31.31466       42.81583
C         28.45739       32.31236       43.32511
C         26.35426       32.44426       42.13359
C         27.63794       32.94750       42.38651
O         28.09455       34.03408       41.73178
H         25.45512       27.53151       45.93685
H         27.30200       29.69632       46.29998
H         25.18202       29.18519       44.12960
H         26.87196       28.58055       44.16190
H         28.66116       30.69643       44.71583
H         24.90240       30.93874       42.60098
H         29.45002       32.69619       43.52580
H         25.71242       32.92429       41.40591
H         27.56326       34.49404       41.06610
N         24.04495       30.67020       46.45280
C         23.19962       31.76897       46.93393
C         23.33530       32.03754       48.43995
O         22.78965       33.03809       48.88586
C         21.71230       31.49282       46.62519
C         21.42754       31.36525       45.12098
C         19.98403       31.02315       44.89037
O         19.68382       29.98504       44.32229
O         19.01285       31.85522       45.31239
H         23.60506       29.82890       46.05621
H         23.50489       32.69392       46.39392
H         21.09224       32.32943       47.01939
H         21.40724       30.55943       47.14693
H         22.05450       30.56901       44.66960
H         21.66573       32.32335       44.61086
N         24.04840       31.22499       49.27716
C         24.26817       31.50900       50.69644
C         25.70761       31.94380       50.95157
O         25.96965       32.46913       52.02459
C         23.94905       30.27096       51.56523
C         22.49382       29.80335       51.43330
C         22.22396       28.58159       52.27146
O         21.25889       28.60354       53.20718
O         22.85181       27.55223       52.08887
H         24.48162       30.38442       48.89316
H         23.62708       32.36143       51.01240
H         24.16040       30.50023       52.63140
H         24.62665       29.44548       51.25826
H         22.27869       29.55360       50.37492
H         21.81417       30.62275       51.75054
N         26.69130       31.76140       50.02360
C         28.05689       32.20979       50.18001
H         28.73520       31.33115       50.16787
H         28.31564       32.86774       49.32239
H         28.21194       32.77843       51.11865
H         26.48968       31.26556       49.15509
Ca        21.69514       25.34300       54.33859
O         19.84171       25.89727       51.61838
H         19.31793       26.22516       50.84480
H         19.47890       24.99381       51.79640

Ca 1.0



