%chk=holoCaM-CaMKII.loop1.water2.frame328.chk
%nprocshared=20
%mem=10GB
%nosave
#b3lyp/svp scf=(tight,noincore,xqc) Test 
#IOP(5/87=12) Density=Current Pop=(MK,readradii) iop(6/33=2) iop(6/42=6)

holoCaM-CaMKII.loop1.water2.frame328 

   0  1 
C         32.41519       49.24898       61.61915
C         31.09902       49.01994       60.94833
O         30.09680       49.55695       61.39873
H         33.11288       49.72223       60.89568
H         32.29562       49.92574       62.49184
H         32.83537       48.28105       61.95961
N         31.03084       48.24000       59.83483
C         29.79733       48.06950       59.08534
C         28.73862       47.39435       59.94943
O         29.04394       46.35431       60.51792
C         30.04320       47.25970       57.79112
C         28.91470       47.46995       56.82568
O         27.98984       48.40972       57.09899
O         28.87152       46.84760       55.77888
H         31.89789       47.80387       59.48380
H         29.48043       49.08874       58.79494
H         30.16691       46.18238       58.03903
H         30.96102       47.60441       57.27200
N         27.48860       47.93180       60.11535
C         26.54128       47.42496       61.10772
C         25.33317       46.69952       60.51305
O         24.61679       46.07965       61.28675
C         26.15305       48.60326       62.03499
C         25.38643       48.23721       63.32305
C         26.10717       47.21909       64.22996
C         27.50847       47.67685       64.67423
N         28.14850       46.65964       65.50646
H         27.22476       48.76773       59.57626
H         27.06414       46.65944       61.71390
H         25.55601       49.34125       61.45484
H         27.08361       49.12847       62.33704
H         24.38540       47.83501       63.06390
H         25.22126       49.17466       63.89871
H         26.18540       46.24505       63.70554
H         25.48003       47.05503       65.13303
H         27.42550       48.62861       65.24452
H         28.15772       47.85189       63.79035
H         29.09416       46.99975       65.79554
H         27.57502       46.47491       66.36069
H         28.26419       45.77539       64.95896
N         25.06346       46.66955       59.17187
C         24.00878       45.82611       58.58983
C         24.59071       44.79889       57.61511
O         23.82905       44.00407       57.08205
C         22.88476       46.69671       57.97222
C         23.28738       47.52123       56.78473
O         24.42210       47.25186       56.13070
O         22.56263       48.41809       56.38729
H         25.63933       47.23704       58.53449
H         23.51115       45.23594       59.39029
H         22.54232       47.38489       58.77544
H         22.01630       46.07041       57.67340
N         25.93397       44.72500       57.36613
C         26.54775       43.71831       56.51977
C         26.16511       43.84578       55.06544
O         25.67405       42.88173       54.49648
H         26.58574       45.37056       57.83219
H         26.30139       42.70639       56.90879
H         27.65286       43.83758       56.57402
N         26.42197       44.99914       54.38699
C         26.22854       45.16030       52.94743
C         27.55650       45.46704       52.23885
O         27.53185       45.77735       51.05599
C         25.12362       46.20695       52.66216
C         25.42059       47.62004       53.07098
O         24.58337       48.48902       52.88987
O         26.59637       47.94944       53.61982
H         26.80734       45.79330       54.91506
H         25.84497       44.21826       52.49800
H         24.19762       45.88093       53.18466
H         24.91329       46.21446       51.57078
N         28.76062       45.32467       52.87749
C         30.05508       45.51829       52.23233
C         30.48222       46.96874       52.07797
O         31.58268       47.18909       51.59216
H         28.78280       44.96278       53.84087
H         30.07272       44.98756       51.25558
H         30.83111       45.04855       52.87535
N         29.69715       48.00406       52.48406
C         30.08344       49.41198       52.42094
C         30.01024       50.05409       53.80171
O         29.24069       49.61097       54.64232
C         29.18705       50.17326       51.41003
C         29.57239       49.82063       49.97318
O         27.82912       49.86529       51.59008
H         28.77536       47.79104       52.86765
H         31.13867       49.51816       52.08472
H         29.33964       51.27185       51.51024
H         27.59820       50.10616       52.51958
H         28.92445       50.37776       49.26329
H         30.62644       50.11803       49.78284
H         29.46160       48.73261       49.78348
N         30.81929       51.11296       54.09686
C         30.87989       51.77459       55.39850
C         30.49036       53.23659       55.22678
O         31.11206       53.93123       54.43376
C         32.31522       51.62963       55.99590
C         32.64965       50.13152       56.22711
C         32.45074       52.41862       57.31720
C         34.10953       49.87784       56.61239
H         31.45599       51.45914       53.36194
H         30.17949       51.30071       56.11523
H         33.03805       52.05063       55.26216
H         32.47253       49.56046       55.29172
H         31.98347       49.71903       57.01555
H         32.25397       53.49524       57.15186
H         31.74023       52.03570       58.08101
H         33.47930       52.36223       57.72364
H         34.27551       48.78570       56.72589
H         34.78295       50.25472       55.81327
H         34.37747       50.35588       57.57495
N         29.49101       53.77877       55.98229
C         29.11268       55.19048       55.93231
C         29.88506       55.97913       56.97599
O         30.63854       55.39399       57.73488
C         27.58891       55.35144       56.18793
C         26.74767       54.61367       55.15100
O         27.27056       54.86617       57.46797
H         29.04242       53.18623       56.69366
H         29.36274       55.61436       54.93437
H         27.33339       56.43432       56.12274
H         26.46814       55.35949       57.78179
H         26.96530       54.99685       54.13271
H         26.96129       53.52741       55.19373
H         25.66880       54.77088       55.36785
N         29.73771       57.32868       57.07410
C         30.37309       58.13001       58.11901
C         29.86888       57.71392       59.49067
O         30.68095       57.46375       60.36969
C         30.10924       59.64243       57.91324
C         30.80300       60.17504       56.65741
O         28.72834       59.89801       57.83264
H         29.13060       57.80067       56.38744
H         31.47805       57.98907       58.08842
H         30.55897       60.18121       58.78344
H         28.53952       60.70061       58.38476
H         30.42350       59.67526       55.74271
H         30.62327       61.26708       56.56722
H         31.89944       60.00827       56.73053
N         28.53072       57.61470       59.73471
C         27.96088       57.27858       61.03750
C         28.54138       55.97876       61.56456
O         29.00452       55.94658       62.69604
C         26.41891       57.21665       60.92750
C         25.73529       57.14194       62.30172
C         24.20808       57.23981       62.16872
C         23.53833       57.31168       63.54871
N         22.08723       57.44945       63.42372
H         27.88447       57.78307       58.94849
H         28.21206       58.09842       61.74674
H         26.10395       56.36586       60.28260
H         26.07793       58.15998       60.44570
H         26.08750       58.00412       62.90959
H         26.01117       56.19983       62.82324
H         23.82286       56.36286       61.60358
H         23.94947       58.16544       61.60838
H         23.93607       58.19148       64.10324
H         23.77497       56.39388       64.13065
H         21.85191       58.31997       62.89310
H         21.68679       56.61756       62.93296
H         21.66647       57.51596       64.37881
N         28.61121       54.88652       60.75807
C         29.21839       53.61771       61.15212
C         30.65638       53.82616       61.60425
O         30.95881       53.52328       62.75046
C         29.12956       52.61800       59.97844
C         27.66085       52.21215       59.73385
C         27.46004       51.33494       58.53680
O         28.38756       51.03704       57.80633
O         26.22522       50.88353       58.25569
H         28.24691       54.98618       59.80027
H         28.65655       53.19137       62.01354
H         29.71001       51.70221       60.20626
H         29.57134       53.08043       59.06864
H         27.02429       53.10610       59.58094
H         27.29400       51.66992       60.63196
N         31.59025       54.36681       60.77831
C         32.94305       54.63968       61.21342
H         33.52539       55.09172       60.38208
H         32.92662       55.35952       62.06035
H         33.44169       53.70091       61.53319
H         31.33229       54.61314       59.81934
Ca        26.05965       48.72319       56.08804
O         24.04341       51.51169       56.45719
H         23.39429       51.48273       55.71058
H         23.84585       50.70076       56.98880
O         26.00859       51.51140       53.84574
H         26.12655       51.84030       52.91963
H         25.29113       52.08385       54.21142

Ca 1.0



