%chk=holoCaM.loop2.water2.frame418.chk
%nprocshared=20
%mem=10GB
%nosave
#b3lyp/svp scf=(tight,noincore,xqc) Test 
#IOP(5/87=12) Density=Current Pop=(MK,readradii) iop(6/33=2) iop(6/42=6)

holoCaM.loop2.water2.frame418 

   -2  1 
C          4.42343      110.75777       39.04236
C          5.87187      111.03457       38.79652
O          6.71250      110.28123       39.26935
H          3.91311      110.59482       38.06918
H          4.30166      109.84467       39.66336
H          3.96171      111.62033       39.56336
N          6.24152      112.08936       38.01876
C          7.63091      112.32382       37.67096
C          8.43798      112.74063       38.90515
O          8.16086      113.78058       39.48602
C          7.74254      113.36605       36.53468
C          9.10513      113.34952       35.91013
O          9.40585      114.17551       35.06496
O          9.98108      112.38846       36.25030
H          5.50581      112.68125       37.60200
H          8.00871      111.36351       37.26389
H          7.50622      114.37637       36.93331
H          7.02331      113.13103       35.72002
N          9.43519      111.93647       39.37097
C         10.22445      112.17283       40.58313
C         11.22474      113.33029       40.50151
O         11.96442      113.50627       41.46088
C         11.00903      110.88939       40.90727
H          9.58369      111.05010       38.87454
H          9.53193      112.35214       41.43425
H         11.56872      110.99410       41.86105
H         10.30583      110.03693       41.02084
H         11.72835      110.65494       40.09206
N         11.32632      114.15637       39.42241
C         12.36255      115.18750       39.30576
C         11.96051      116.25731       38.29387
O         12.02324      117.42502       38.65675
C         13.77091      114.55667       39.10607
C         13.80812      113.52441       38.02319
O         13.64946      113.86922       36.74141
O         13.87896      112.34090       38.31713
H         10.65741      114.04390       38.65308
H         12.42993      115.74567       40.26833
H         14.02911      114.03315       40.05148
H         14.55109      115.32997       38.94120
N         11.43460      115.95670       37.06875
C         10.88816      116.97476       36.17810
C         11.50952      116.98521       34.80120
O         11.13620      117.85334       34.02443
H         11.33686      114.97408       36.78573
H         11.01985      117.99288       36.60500
H          9.79529      116.80605       36.06918
N         12.46857      116.09168       34.41519
C         13.14751      116.19520       33.12633
C         12.22645      115.95858       31.92912
O         12.66713      116.18423       30.81036
C         14.39995      115.28495       33.08380
C         14.11718      113.82574       32.81315
N         14.72445      113.19124       31.78278
O         13.35004      113.20687       33.52723
H         12.78475      115.37811       35.07819
H         13.53188      117.23832       33.07835
H         14.94482      115.38542       34.04904
H         15.07828      115.65932       32.28942
H         15.39368      113.68722       31.17631
H         14.54241      112.19354       31.60019
N         10.94660      115.50193       32.08143
C         10.00666      115.32122       30.98826
C          9.54028      113.88608       30.83821
O          8.62775      113.66557       30.05829
H         10.59132      115.27938       33.02088
H         10.42685      115.65119       30.01298
H          9.12157      115.95775       31.20335
N         10.15470      112.85157       31.48951
C          9.77734      111.44924       31.29308
C          9.71340      110.70272       32.61743
O         10.06787      111.25684       33.64391
C         10.83264      110.76515       30.38914
C         10.83151      111.35082       28.97502
O         12.10823      110.91072       30.96074
H         10.98223      113.04659       32.06843
H          8.77992      111.37201       30.80803
H         10.57895      109.68393       30.29928
H         12.68884      110.20964       30.56655
H         11.09465      112.42872       28.98698
H         11.57614      110.81477       28.34994
H          9.82921      111.22259       28.51337
N          9.30682      109.39521       32.63730
C          9.42020      108.53604       33.81153
C         10.30447      107.34110       33.47136
O         10.12493      106.72733       32.43017
C          8.04625      108.11676       34.41123
C          7.20069      107.19199       33.50624
C          7.26962      109.37430       34.84187
C          5.97038      106.63268       34.22990
H          8.94948      108.97367       31.76877
H          9.91940      109.08703       34.63451
H          8.27709      107.54162       35.33179
H          7.80754      106.30948       33.21977
H          6.89002      107.72527       32.58337
H          7.90701      109.99793       35.49724
H          6.97363      109.97929       33.95949
H          6.36460      109.11893       35.42803
H          5.43889      105.91898       33.56744
H          6.28356      106.09034       35.14847
H          5.25552      107.43228       34.50774
N         11.27038      106.94346       34.34375
C         12.15445      105.80240       34.13625
C         11.54403      104.57172       34.80115
O         10.45187      104.67278       35.32876
C         13.55315      106.19876       34.67402
C         14.65743      105.23399       34.35175
O         14.91460      104.96226       33.19004
O         15.40062      104.69848       35.33861
H         11.33028      107.42453       35.24452
H         12.24053      105.58635       33.04887
H         13.49562      106.35941       35.77383
H         13.84371      107.15945       34.20341
N         12.16053      103.35929       34.76982
C         11.57644      102.13668       35.32032
C         11.23004      102.23086       36.81230
O         10.08800      101.92352       37.12761
C         12.48658      100.93564       34.97769
C         11.92235       99.57993       35.34613
C         10.64146       99.17998       34.91585
C         12.70207       98.67668       36.08965
C         10.15202       97.90950       35.23495
C         12.21391       97.40144       36.39217
C         10.93912       97.01934       35.96826
H         13.06778      103.28491       34.29313
H         10.62259      101.96279       34.77626
H         13.49096      101.07872       35.42947
H         12.61783      100.93200       33.87328
H         10.01596       99.84265       34.33355
H         13.69740       98.94909       36.41721
H          9.16459       97.61158       34.90568
H         12.82742       96.70632       36.95040
H         10.56330       96.03172       36.20309
N         12.08924      102.65633       37.79501
C         11.71326      102.73367       39.20511
C         10.62271      103.76758       39.45255
O          9.86653      103.60917       40.40026
C         13.03223      103.07107       39.91087
C         13.75929      103.89150       38.86903
C         13.44353      103.12408       37.58506
H         11.35452      101.75254       39.58813
H         12.93265      103.53353       40.91693
H         13.61580      102.12867       40.01763
H         13.26024      104.88538       38.82379
H         14.84174      104.05997       39.05132
H         13.53690      103.83969       36.75237
H         14.10737      102.24522       37.44166
N         10.46793      104.83745       38.62893
C          9.38681      105.80864       38.75536
C          8.05070      105.13461       38.47222
O          7.14162      105.26183       39.28048
C          9.65838      106.99953       37.81272
C         10.90797      107.77252       38.29418
C         11.30097      108.87912       37.36461
O         10.41200      109.82177       37.02012
O         12.43429      108.92811       36.91257
H         11.13907      104.95826       37.85729
H          9.35913      106.23047       39.78536
H          8.79231      107.69835       37.81909
H          9.79565      106.62425       36.78174
H         11.77843      107.09102       38.40335
H         10.68654      108.20923       39.29045
N          7.87703      104.35223       37.37129
C          6.64560      103.64432       37.09532
H          5.81814      104.36400       36.92997
H          6.76604      103.02122       36.18181
H          6.39421      102.97127       37.94275
H          8.65676      104.21291       36.72364
Ca        12.13938      112.54456       35.80746
O         15.10359      111.05932       35.64408
H         15.19092      110.49542       36.45322
H         15.59529      110.56336       34.94226
O         13.04785      109.64609       34.00014
H         12.36712      110.06442       33.42045
H         13.80278      109.45497       33.38933

Ca 1.0



