%chk=holoCaM.loop2.water2.frame50.chk
%nprocshared=20
%mem=10GB
%nosave
#b3lyp/svp scf=(tight,noincore,xqc) Test 
#IOP(5/87=12) Density=Current Pop=(MK,readradii) iop(6/33=2) iop(6/42=6)

holoCaM.loop2.water2.frame50 

   -2  1 
C         82.83028      102.00862        9.76850
C         82.26254      102.97793        8.77795
O         82.17808      102.65516        7.60158
H         83.73645      102.45350       10.23307
H         82.08140      101.79777       10.55928
H         83.11618      101.05736        9.27218
N         81.86419      104.21115        9.19614
C         81.36634      105.24312        8.29217
C         82.44700      105.54121        7.26597
O         83.51390      106.00729        7.63984
C         80.91286      106.46212        9.14067
C         80.50042      107.73048        8.43394
O         79.50408      107.77814        7.52714
O         81.03733      108.77265        8.76446
H         81.94210      104.42201       10.20383
H         80.48179      104.84183        7.77257
H         81.74226      106.73266        9.83145
H         80.05451      106.12846        9.76452
N         82.25066      105.20591        5.95359
C         83.27791      105.30464        4.92115
C         82.94662      106.35063        3.87416
O         83.80793      106.63310        3.05226
C         83.49068      103.93296        4.27496
H         81.33838      104.82133        5.67603
H         84.23830      105.62407        5.38035
H         82.55579      103.58624        3.78298
H         84.29879      103.98003        3.51399
H         83.78141      103.19143        5.04904
N         81.76502      107.03014        3.89293
C         81.53390      108.24261        3.12278
C         81.48044      109.43912        4.07141
O         81.28122      110.55073        3.60212
C         80.30965      108.10460        2.19042
C         78.97754      107.85300        2.84239
O         77.99189      107.72117        2.13521
O         78.84443      107.76725        4.17798
H         81.03709      106.76320        4.56786
H         82.39244      108.44577        2.44529
H         80.50907      107.26532        1.48855
H         80.22283      109.03425        1.58554
N         81.75432      109.30041        5.40958
C         81.90140      110.42115        6.31768
C         80.61824      111.15047        6.65159
O         80.71443      112.13817        7.36635
H         81.98478      108.37995        5.80791
H         82.63394      111.13192        5.88015
H         82.35175      110.06381        7.26508
N         79.39462      110.77766        6.16964
C         78.21881      111.62271        6.36587
C         77.75533      111.72212        7.81861
O         77.10546      112.70333        8.14996
C         77.05917      111.22284        5.43746
C         76.31173      110.00072        5.90035
N         74.98918      110.08776        6.17287
O         76.89148      108.93314        6.02903
H         79.31803      109.94992        5.56365
H         78.53047      112.63613        6.02472
H         77.44551      111.06147        4.40694
H         76.34879      112.07552        5.39207
H         74.48222      110.97932        6.07315
H         74.46157      109.26273        6.47517
N         78.01792      110.73366        8.72461
C         77.65045      110.80179       10.13340
C         76.74420      109.67230       10.60271
O         76.53774      109.58723       11.80512
H         78.53326      109.90019        8.41767
H         77.16173      111.76676       10.38989
H         78.59424      110.74299       10.71635
N         76.14184      108.79347        9.74556
C         75.27235      107.69446       10.18852
C         75.78416      106.35901        9.63788
O         76.84599      106.33630        9.03337
C         73.80030      107.98340        9.79559
C         73.28733      109.27172       10.45456
O         73.67708      108.07349        8.40598
H         76.27122      108.91738        8.73122
H         75.27755      107.60332       11.29752
H         73.16101      107.15375       10.16921
H         72.70783      108.02118        8.19626
H         73.86643      110.15458       10.11228
H         72.21915      109.43000       10.19415
H         73.36421      109.19307       11.56055
N         75.08598      105.19837        9.82940
C         75.55330      103.87203        9.42033
C         74.64954      103.29305        8.32763
O         73.44922      103.17422        8.52993
C         75.61400      102.95118       10.68237
C         76.70403      103.47592       11.65609
C         75.87786      101.48027       10.30472
C         76.76929      102.72288       12.98746
H         74.18140      105.23704       10.31993
H         76.58255      103.92575        9.00165
H         74.62389      102.98522       11.19062
H         76.49782      104.53970       11.89978
H         77.70095      103.42211       11.16470
H         75.05500      101.09968        9.67117
H         76.84342      101.37206        9.76791
H         75.87495      100.82306       11.19579
H         77.05122      101.66023       12.84799
H         77.54640      103.18507       13.63194
H         75.79182      102.78235       13.51071
N         75.20394      102.85242        7.15488
C         74.48597      102.12823        6.10362
C         74.51509      100.63433        6.38996
O         75.10575      100.23429        7.37676
C         75.17009      102.37217        4.73650
C         75.13324      103.81016        4.31487
O         74.06395      104.36055        4.10701
O         76.28081      104.48937        4.12626
H         76.22505      102.89822        7.06684
H         73.42482      102.45952        6.06360
H         74.67126      101.78339        3.93890
H         76.22876      102.03271        4.79599
N         73.87658       99.74066        5.58204
C         73.88012       98.30199        5.84093
C         75.27541       97.68353        5.66608
O         75.74249       97.10871        6.63804
C         72.75860       97.60218        5.03739
C         72.68219       96.10708        5.26067
C         72.55948       95.56797        6.55567
C         72.70598       95.23298        4.15883
C         72.47091       94.18461        6.74015
C         72.60456       93.85145        4.34821
C         72.48951       93.32746        5.63762
H         73.32678      100.10198        4.78708
H         73.58320       98.15751        6.90404
H         72.83592       97.81816        3.95873
H         71.79305       98.04478        5.36530
H         72.53315       96.21040        7.42530
H         72.78848       95.61924        3.15049
H         72.38210       93.77699        7.73895
H         72.61148       93.18687        3.49392
H         72.41146       92.25761        5.78218
N         76.02204       97.75189        4.51167
C         77.37628       97.20676        4.37825
C         78.29991       97.61399        5.50800
O         78.99344       96.77589        6.06695
C         77.88642       97.83149        3.06898
C         76.62303       97.90718        2.25611
C         75.61992       98.41697        3.28790
H         77.31854       96.09927        4.28921
H         78.20311       98.88765        3.23424
H         78.73375       97.28760        2.59891
H         76.68452       98.51619        1.32944
H         76.34819       96.86258        1.98102
H         75.69043       99.51599        3.43969
H         74.62239       98.13295        2.92051
N         78.32632       98.91338        5.89722
C         79.17370       99.45691        6.95070
C         78.90229       98.74366        8.26258
O         79.83403       98.23713        8.87137
C         78.92073      100.97556        7.06268
C         79.31418      101.68648        5.74522
C         79.00435      103.14351        5.74597
O         78.45449      103.73213        6.81626
O         79.27320      103.81557        4.76335
H         77.66883       99.54731        5.41964
H         80.24641       99.31707        6.68680
H         79.52094      101.40217        7.89711
H         77.84505      101.14959        7.28343
H         78.77770      101.26681        4.87384
H         80.40465      101.55647        5.57595
N         77.63265       98.61738        8.72707
C         77.30068       97.89132        9.93100
H         76.19749       97.88375       10.06978
H         77.64829       96.83959        9.84510
H         77.77047       98.37584       10.81099
H         76.86697       99.01653        8.18205
Ca        78.50562      105.94599        6.78072
O         75.29420      107.67015        3.92819
H         75.86907      108.33591        3.47542
H         74.91505      107.12387        3.19622
O         74.88317      106.01256        6.54084
H         74.04206      105.49530        6.47865
H         74.61367      106.93367        6.30860

Ca 1.0



