%chk=holoCaM.loop1.water2.frame236.chk
%nprocshared=20
%mem=10GB
%nosave
#b3lyp/svp scf=(tight,noincore,xqc) Test 
#IOP(5/87=12) Density=Current Pop=(MK,readradii) iop(6/33=2) iop(6/42=6)

holoCaM.loop1.water2.frame236 

   0  1 
C         62.22707       98.45250       77.33499
C         61.54356       99.74393       77.63716
O         62.18162      100.63866       78.17658
H         63.28620       98.49024       77.66985
H         61.70694       97.62612       77.85905
H         62.20559       98.27793       76.23899
N         60.23966       99.93177       77.28499
C         59.58962      101.21024       77.49548
C         59.45490      101.48427       78.99593
O         58.73119      100.77930       79.68519
C         58.22490      101.27899       76.78028
C         57.73718      102.69329       76.70442
O         58.55260      103.69859       77.07993
O         56.62693      102.93400       76.26363
H         59.73464       99.17407       76.80014
H         60.24921      101.96311       77.00441
H         57.49040      100.64028       77.31804
H         58.31162      100.91453       75.73404
N         60.20329      102.46478       79.56285
C         60.29053      102.74169       80.99430
C         58.97909      103.23659       81.59797
O         58.55089      102.66042       82.58856
C         61.44500      103.74247       81.23129
C         61.80984      103.92561       82.71268
C         63.02805      104.85272       82.91104
C         64.35140      104.36090       82.28026
N         64.79089      103.07549       82.82751
H         60.83419      102.97606       78.93524
H         60.59229      101.79974       81.50703
H         61.20705      104.72758       80.77703
H         62.33236      103.32005       80.71597
H         62.01778      102.93879       83.17715
H         60.94259      104.37161       83.24505
H         63.19245      104.98184       84.00260
H         62.78924      105.85115       82.48465
H         65.13433      105.12301       82.48938
H         64.26625      104.28804       81.17525
H         65.72337      102.83360       82.42022
H         64.88526      103.13853       83.86709
H         64.12007      102.31620       82.57334
N         58.28789      104.29078       81.06703
C         57.07355      104.84378       81.68210
C         55.79321      104.31658       81.04613
O         54.72157      104.66990       81.51932
C         57.15113      106.39239       81.70632
C         57.12991      107.04082       80.34457
O         57.47534      108.20324       80.21785
O         56.62114      106.38935       79.28765
H         58.62833      104.70477       80.18704
H         57.02362      104.51738       82.74490
H         58.10818      106.65797       82.20548
H         56.32665      106.83154       82.30892
N         55.81933      103.42800       80.01217
C         54.62483      102.81365       79.46205
C         53.71082      103.79930       78.77703
O         52.54563      103.88191       79.13792
H         56.72120      103.11662       79.62472
H         54.08342      102.27087       80.26790
H         54.92986      102.06379       78.69946
N         54.16853      104.53138       77.72550
C         53.32481      105.37511       76.88570
C         53.28714      104.83065       75.45284
O         52.84659      105.53663       74.55655
C         53.78070      106.85075       76.98148
C         55.14268      107.16970       76.43283
O         55.61399      108.42616       76.53483
O         55.82100      106.32084       75.88502
H         55.16105      104.44391       77.47271
H         52.27460      105.37392       77.25154
H         53.76236      107.14269       78.05426
H         53.05002      107.49152       76.44291
N         53.65524      103.53903       75.18622
C         53.57584      102.91070       73.87587
C         54.70377      103.26816       72.92569
O         54.73089      102.68735       71.84885
H         53.91735      102.91815       75.96443
H         52.58187      103.10604       73.41717
H         53.65621      101.81170       74.02630
N         55.66659      104.18650       73.22731
C         56.78201      104.50870       72.33621
C         58.12989      104.43036       73.04494
O         58.19174      104.30791       74.25887
C         56.58115      105.91641       71.70797
C         55.55390      105.85893       70.57939
O         56.14441      106.85772       72.65531
H         55.60158      104.69853       74.11323
H         56.84751      103.76168       71.51376
H         57.52467      106.27378       71.23961
H         56.70498      106.75157       73.46066
H         55.91442      105.17393       69.78106
H         54.56973      105.50437       70.94837
H         55.43218      106.86940       70.13460
N         59.26705      104.45122       72.29316
C         60.63066      104.34002       72.80265
C         61.44476      105.53261       72.30416
O         61.47550      105.79330       71.10893
C         61.21920      102.95438       72.37376
C         60.53899      101.85060       73.23997
C         62.75162      102.89089       72.52053
C         61.01031      100.42122       72.96976
H         59.16092      104.49819       71.26699
H         60.65327      104.36177       73.91467
H         61.00529      102.78721       71.29466
H         59.44141      101.88005       73.07424
H         60.72790      102.05914       74.31789
H         63.23743      103.66991       71.89966
H         63.05801      103.00935       73.57308
H         63.14634      101.92653       72.14211
H         60.83294      100.14569       71.91059
H         62.08436      100.29608       73.21866
H         60.44564       99.72383       73.62553
N         62.17643      106.26715       73.19084
C         63.04504      107.38716       72.84259
C         64.46697      106.89009       72.63450
O         64.69692      105.69353       72.69274
C         63.01028      108.46581       73.96960
C         61.60276      109.01361       74.22430
O         63.59199      107.98030       75.15806
H         62.20677      105.94516       74.16121
H         62.70596      107.85790       71.89372
H         63.60961      109.34435       73.65748
H         62.89696      107.51332       75.68707
H         61.64152      109.80119       75.00735
H         61.18615      109.45356       73.29432
H         60.94216      108.20031       74.58047
N         65.48327      107.76559       72.40625
C         66.88326      107.36737       72.27017
C         67.35627      106.58588       73.49244
O         67.88944      105.49720       73.33428
C         67.78939      108.61386       72.06120
C         67.51080      109.31260       70.72599
O         67.60873      109.53268       73.11143
H         65.25403      108.76776       72.35892
H         67.00079      106.71130       71.37834
H         68.84794      108.25979       72.03600
H         68.48267      109.97181       73.27909
H         66.46803      109.68665       70.66774
H         68.19566      110.17922       70.60899
H         67.68797      108.60982       69.88492
N         67.20641      107.10145       74.74127
C         67.71086      106.46788       75.95945
C         67.03717      105.13584       76.22126
O         67.73629      104.15160       76.41972
C         67.53690      107.42074       77.16176
C         68.39972      108.68060       76.95251
C         68.28223      109.68314       78.10084
C         69.20952      110.89890       77.90084
N         68.88639      111.66931       76.69558
H         66.71886      108.00485       74.82237
H         68.80544      106.28804       75.85889
H         67.88147      106.91059       78.08872
H         66.46485      107.69204       77.28674
H         68.09009      109.18586       76.01979
H         69.46354      108.37224       76.85124
H         68.57304      109.17978       79.04838
H         67.22885      110.02636       78.19383
H         70.26831      110.55947       77.84965
H         69.10586      111.56084       78.78780
H         67.88223      111.96059       76.70826
H         69.48653      112.52476       76.66926
H         69.08954      111.11933       75.83097
N         65.68009      105.02515       76.20584
C         64.96860      103.76269       76.42636
C         65.46607      102.69339       75.45663
O         65.60583      101.54713       75.86009
C         63.43502      103.96539       76.31432
C         62.90605      104.95636       77.37728
C         61.44269      105.28109       77.23498
O         60.99773      105.72176       76.19047
O         60.63090      105.20073       78.30024
H         65.14312      105.87418       75.98115
H         65.17761      103.40125       77.45802
H         62.91100      102.99065       76.43415
H         63.21567      104.35817       75.30653
H         63.43976      105.91885       77.29689
H         63.09852      104.54979       78.39335
N         65.86797      103.02485       74.19826
C         66.48371      102.08097       73.29137
H         67.41218      101.67296       73.74692
H         65.78350      101.25421       73.05655
H         66.76447      102.59668       72.34661
H         65.78200      103.99551       73.88478
Ca        57.86274      105.74511       77.56636
O         59.32591      108.84056       77.17004
H         58.79000      108.76797       77.99824
H         58.99579      109.66697       76.73578
O         58.49220      108.08560       74.39470
H         58.66474      108.83358       73.77030
H         57.68361      108.36278       74.89150

Ca 1.0



