%chk=holoCaM-CaMKII.loop2.water2.frame334.chk
%nprocshared=20
%mem=10GB
%nosave
#b3lyp/svp scf=(tight,noincore,xqc) Test 
#IOP(5/87=12) Density=Current Pop=(MK,readradii) iop(6/33=2) iop(6/42=6)

holoCaM-CaMKII.loop2.water2.frame334 

   -2  1 
C         42.28301       75.36278       53.93045
C         42.53859       76.35406       52.82716
O         43.20641       76.02676       51.85954
H         41.18845       75.19362       54.02969
H         42.77220       74.38768       53.72413
H         42.66734       75.76209       54.89294
N         42.00768       77.60137       52.92136
C         42.11029       78.64214       51.89813
C         43.54256       79.07718       51.62207
O         44.24739       79.47140       52.54015
C         41.31039       79.86865       52.37140
C         41.32952       81.06017       51.44783
O         40.70085       81.03798       50.25269
O         41.79654       82.11151       51.85528
H         41.45541       77.80527       53.76989
H         41.64602       78.26077       50.96643
H         41.73063       80.18470       53.35198
H         40.25048       79.57941       52.53452
N         43.99040       79.10708       50.33543
C         45.28114       79.62329       49.90451
C         45.14662       80.78059       48.90025
O         46.17902       81.31888       48.52496
C         46.07044       78.47892       49.25402
H         43.36236       78.76232       49.61257
H         45.85539       79.99297       50.78092
H         46.19604       77.64235       49.97388
H         45.53062       78.09406       48.36011
H         47.07862       78.82159       48.93758
N         43.94325       81.18463       48.37639
C         43.81703       82.19818       47.32080
C         42.80635       83.31775       47.63459
O         42.63126       84.18502       46.78940
C         43.50633       81.49609       45.97849
C         42.33305       80.56230       46.02974
O         41.12847       81.00567       46.40436
O         42.47068       79.38877       45.72699
H         43.08034       80.69954       48.65492
H         44.78696       82.71708       47.15696
H         44.39812       80.90057       45.68175
H         43.34059       82.25869       45.18756
N         42.15711       83.41208       48.83065
C         41.29389       84.53188       49.21138
C         39.95324       84.65554       48.48964
O         39.25056       85.61468       48.77665
H         42.37162       82.72031       49.55243
H         41.86492       85.47604       49.06803
H         41.06329       84.44844       50.29520
N         39.52550       83.76835       47.54698
C         38.30258       83.96267       46.75613
C         36.99471       83.58041       47.46505
O         35.95052       83.66683       46.83274
C         38.43982       83.25662       45.38858
C         38.50064       81.75264       45.41375
N         38.66337       81.08179       44.25263
O         38.41695       81.13321       46.46259
H         40.15198       82.99792       47.29803
H         38.23424       85.04033       46.48562
H         39.36972       83.63085       44.90599
H         37.58390       83.54948       44.74308
H         38.74872       81.58852       43.35967
H         38.71296       80.05658       44.24468
N         36.95457       83.19452       48.77137
C         35.71792       82.89770       49.48914
C         35.07734       81.54781       49.18751
O         34.08435       81.25289       49.83812
H         37.82358       83.20774       49.31939
H         34.98421       83.71935       49.33105
H         35.95306       82.87732       50.57537
N         35.56552       80.67013       48.25949
C         34.98598       79.34210       48.02518
C         36.02717       78.23514       48.16293
O         37.21902       78.50780       48.12477
C         34.35603       79.27099       46.61185
C         33.13327       80.18233       46.49654
O         35.29176       79.64545       45.63115
H         36.37141       80.94734       47.69165
H         34.19253       79.12946       48.77548
H         33.98794       78.23801       46.40827
H         35.91824       78.88500       45.51527
H         33.40594       81.24293       46.67807
H         32.69818       80.09731       45.47760
H         32.35847       79.87458       47.23135
N         35.62224       76.93790       48.31727
C         36.54261       75.80160       48.33499
C         36.94980       75.48367       46.90384
O         36.07270       75.29813       46.07039
C         35.89788       74.52220       48.97263
C         35.43357       74.78605       50.43067
C         36.91502       73.35385       48.94414
C         34.74070       73.57957       51.07967
H         34.61191       76.75150       48.41182
H         37.42516       76.04100       48.96852
H         35.00923       74.22895       48.37042
H         34.70007       75.61823       50.43590
H         36.29933       75.08437       51.06175
H         36.48154       72.41217       49.33005
H         37.22173       73.12101       47.90835
H         37.82151       73.60599       49.53758
H         33.87454       73.25351       50.46533
H         35.43564       72.72582       51.21339
H         34.37562       73.85680       52.09020
N         38.25961       75.29932       46.57827
C         38.71317       74.84148       45.26537
C         39.24811       73.41924       45.37438
O         39.25921       72.87334       46.46773
C         39.77760       75.80021       44.70548
C         39.22799       77.18552       44.52234
O         38.79533       77.89129       45.58484
O         39.18101       77.68139       43.40797
H         38.96321       75.41180       47.31758
H         37.86211       74.80053       44.54974
H         40.12615       75.42540       43.71930
H         40.65303       75.84402       45.38904
N         39.65275       72.72501       44.27040
C         40.03808       71.31641       44.32725
C         41.24443       71.06311       45.22808
O         41.12722       70.18338       46.06714
C         40.27925       70.70969       42.92602
C         40.54176       69.22441       43.03719
C         39.51331       68.35076       43.43299
C         41.82095       68.70399       42.77455
C         39.76007       66.98109       43.55892
C         42.06572       67.33413       42.91252
C         41.03585       66.47330       43.30177
H         39.61861       73.19115       43.35073
H         39.17027       70.75935       44.74930
H         41.13188       71.19828       42.42975
H         39.39775       70.87227       42.26970
H         38.52027       68.72972       43.64022
H         42.63265       69.35911       42.48308
H         38.96242       66.31420       43.85977
H         43.05537       66.94013       42.72145
H         41.22658       65.41320       43.40652
N         42.43865       71.73232       45.12511
C         43.57553       71.47686       46.00722
C         43.18853       71.61155       47.46882
O         43.52503       70.76661       48.28602
C         44.57860       72.58732       45.63852
C         44.25643       72.83598       44.18539
C         42.73364       72.81410       44.20523
H         44.00306       70.47599       45.77710
H         44.32505       73.53767       46.16187
H         45.63886       72.34535       45.86593
H         44.69912       73.75827       43.75257
H         44.61024       71.95558       43.60131
H         42.31175       73.75837       44.61778
H         42.38701       72.67102       43.17195
N         42.45610       72.69356       47.83775
C         42.06009       73.03737       49.19886
C         41.10280       72.01837       49.79303
O         41.01400       71.93752       51.00978
C         41.39480       74.43061       49.16857
C         42.39252       75.48024       48.63597
C         41.79069       76.79857       48.29711
O         42.52267       77.65869       47.84527
O         40.48001       77.06861       48.39398
H         42.16976       73.32350       47.07527
H         42.97388       73.08822       49.83315
H         41.03358       74.73792       50.17489
H         40.51986       74.36128       48.49234
H         42.88875       75.16370       47.70163
H         43.19478       75.62377       49.38734
N         40.33058       71.23305       48.99240
C         39.40095       70.23555       49.47414
H         38.37829       70.49158       49.12589
H         39.68192       69.24790       49.05069
H         39.39608       70.15974       50.58025
H         40.38698       71.34947       47.97910
Ca        40.20449       79.17538       49.09463
O         38.01617       80.81893       50.19187
H         38.29187       81.49194       50.86398
H         37.51491       80.14446       50.71009
O         38.42869       77.65808       50.99082
H         38.70100       77.66439       51.94174
H         39.02917       76.99510       50.56843

Ca 1.0



