%chk=holoCaM.loop1.water2.frame425.chk
%nprocshared=20
%mem=10GB
%nosave
#b3lyp/svp scf=(tight,noincore,xqc) Test 
#IOP(5/87=12) Density=Current Pop=(MK,readradii) iop(6/33=2) iop(6/42=6)

holoCaM.loop1.water2.frame425 

   0  1 
C          6.98186       96.22307       44.31036
C          7.43575       97.20456       43.27704
O          6.59749       97.78857       42.60820
H          5.87291       96.14855       44.31469
H          7.40963       95.22510       44.08524
H          7.32034       96.55659       45.31374
N          8.76202       97.46873       43.11674
C          9.24924       98.45290       42.16073
C          9.12700       97.93122       40.72302
O          9.38057       96.75780       40.49284
C         10.66839       98.92037       42.54398
C         10.96420      100.21160       41.84953
O         11.96573      100.34298       41.16902
O         10.06523      101.21295       41.94350
H          9.43367       97.00859       43.75118
H          8.60150       99.34966       42.29055
H         11.43692       98.14142       42.34398
H         10.67662       99.14997       43.63197
N          8.65237       98.74259       39.73144
C          8.23757       98.30067       38.39512
C          8.98112       98.98853       37.24874
O          8.79925       98.55474       36.11961
C          6.71409       98.58583       38.25276
C          5.87208       97.76889       39.24833
C          5.71534       96.31083       38.79711
C          5.15040       95.42933       39.91564
N          4.89359       94.07625       39.42244
H          8.50801       99.72036       39.96717
H          8.44093       97.21734       38.28065
H          6.33671       98.39634       37.22457
H          6.56013       99.66790       38.46483
H          4.85200       98.20351       39.34014
H          6.34356       97.83323       40.24163
H          6.68952       95.87550       38.49987
H          5.04084       96.29778       37.91196
H          4.20691       95.85758       40.31907
H          5.89841       95.38749       40.74044
H          4.11223       94.09950       38.72715
H          5.75062       93.67975       38.97203
H          4.61720       93.46345       40.22269
N          9.80190      100.06130       37.43600
C         10.56226      100.71391       36.35712
C         12.06417      100.75932       36.66885
O         12.81404      101.26749       35.84740
C          9.97216      102.11952       36.04689
C          9.97513      103.05000       37.22313
O         10.58953      102.64885       38.34233
O          9.38951      104.11914       37.17783
H          9.87657      100.44265       38.38535
H         10.45751      100.13729       35.41261
H          8.91502      101.96781       35.73573
H         10.51114      102.59481       35.19865
N         12.58208      100.20403       37.80533
C         14.00339      100.11287       38.09515
C         14.67208      101.43611       38.39212
O         15.67566      101.74564       37.76654
H         11.96059       99.74160       38.48199
H         14.51959       99.58328       37.26516
H         14.12856       99.49362       39.01072
N         14.20937      102.22915       39.39749
C         14.90918      103.40970       39.90347
C         15.22928      103.27684       41.40104
O         15.78602      104.21042       41.96234
C         14.09704      104.68797       39.61159
C         12.67817      104.62905       40.08629
O         12.39504      104.31389       41.35976
O         11.77029      104.87082       39.30907
H         13.32864      101.96030       39.85806
H         15.88727      103.54339       39.39166
H         14.08864      104.86907       38.51432
H         14.60191      105.55532       40.08792
N         14.93294      102.14707       42.10874
C         15.21132      101.97091       43.52525
C         14.42587      102.92402       44.39640
O         15.01072      103.49678       45.30161
H         14.50339      101.34130       41.63675
H         16.30285      102.05506       43.72616
H         14.89911      100.94238       43.80931
N         13.08090      103.07076       44.22223
C         12.19338      103.87814       45.07711
C         10.71689      103.59149       44.76229
O         10.41707      102.92136       43.78930
C         12.41872      105.42768       44.97015
C         13.71407      106.00018       45.55944
O         12.25357      105.87530       43.65165
H         12.66883      102.50352       43.46597
H         12.34457      103.54724       46.12807
H         11.63050      105.91184       45.58352
H         13.10521      105.70664       43.17164
H         13.84151      105.66625       46.61021
H         14.60062      105.74131       44.95142
H         13.65328      107.10949       45.54740
N          9.73090      104.05990       45.57806
C          8.30083      103.82892       45.36959
C          7.58060      105.17807       45.27167
O          7.67418      105.97935       46.19120
C          7.77501      102.89607       46.51266
C          8.31600      101.45435       46.25760
C          6.24008      102.88715       46.61690
C          7.88973      100.40157       47.28322
H         10.00403      104.58263       46.42431
H          8.11043      103.29308       44.41362
H          8.14679      103.28022       47.48814
H          9.42619      101.47631       46.24219
H          7.96816      101.10016       45.26003
H          5.78129      102.46623       45.71033
H          5.90904      102.28632       47.48751
H          5.85068      103.90924       46.79436
H          6.79032      100.25155       47.27662
H          8.34795       99.42505       47.01437
H          8.22554      100.68856       48.30011
N          6.81072      105.46769       44.17559
C          5.97476      106.66364       44.03161
C          4.60401      106.40034       44.62284
O          4.36832      105.30336       45.09756
C          5.79661      107.06183       42.53309
C          7.09074      107.52157       41.86131
O          5.17389      106.03183       41.79835
H          6.68435      104.72418       43.48263
H          6.42898      107.51476       44.58518
H          5.13021      107.94638       42.47293
H          5.86474      105.38507       41.50095
H          7.52609      108.38285       42.40980
H          7.81811      106.69913       41.83072
H          6.87733      107.83475       40.81648
N          3.64001      107.36673       44.63155
C          2.29621      107.12469       45.15523
C          1.53453      106.09624       44.32410
O          0.62740      105.47343       44.85813
C          1.47469      108.43066       45.25883
C          2.11854      109.42622       46.22937
O          1.34769      109.03719       43.99671
H          3.87617      108.30174       44.26930
H          2.40618      106.71619       46.18546
H          0.46736      108.19582       45.67914
H          0.51524      108.68753       43.58423
H          3.12756      109.73590       45.88646
H          1.48658      110.33536       46.30898
H          2.21031      108.97128       47.23872
N          1.82906      105.87782       43.00944
C          1.17778      104.84370       42.20638
C          1.51899      103.48287       42.76954
O          0.62978      102.70585       43.08748
C          1.67055      104.90998       40.73059
C          1.17514      106.15169       39.96853
C         -0.32501      106.05395       39.64640
C         -0.83634      107.30061       38.92028
N         -2.25683      107.15773       38.59912
H          2.55842      106.45563       42.56608
H          0.07722      104.96795       42.23266
H          1.34130      104.00947       40.16484
H          2.78256      104.90930       40.72081
H          1.72109      106.21039       39.00054
H          1.40574      107.07100       40.54795
H         -0.91984      105.93837       40.57258
H         -0.49276      105.16105       39.00298
H         -0.26064      107.45976       37.98170
H         -0.69466      108.18707       39.57787
H         -2.59726      108.03335       38.14143
H         -2.39579      106.35493       37.94273
H         -2.81062      106.99498       39.47184
N          2.82260      103.13412       42.88580
C          3.29257      101.82479       43.31703
C          2.96495      101.55656       44.77778
O          2.86791      100.39744       45.15605
C          4.81501      101.75187       43.07669
C          5.13253      101.91421       41.57874
C          6.59118      102.07949       41.32841
O          7.28414      103.08548       41.88532
O          7.14358      101.34694       40.54234
H          3.51728      103.84735       42.62108
H          2.80934      101.03995       42.69177
H          5.23647      100.79054       43.44597
H          5.28844      102.58926       43.62710
H          4.66528      102.82168       41.15435
H          4.73442      101.03801       41.02057
N          2.81855      102.57738       45.66576
C          2.55405      102.36944       47.07110
H          1.57574      101.86386       47.20252
H          3.36130      101.75705       47.52569
H          2.52357      103.35076       47.59355
H          2.91014      103.54312       45.34259
Ca        10.08922      102.89864       40.48879
O          8.19855      105.23580       39.71834
H          8.88304      105.92601       39.52890
H          7.68856      105.15031       38.87484
O          9.69634      105.45648       42.65319
H         10.15546      105.80771       41.85035
H          9.64879      106.22929       43.27168

Ca 1.0



