%chk=holoCaM.loop2.water1.frame28.chk
%nprocshared=20
%mem=10GB
%nosave
#b3lyp/svp scf=(tight,noincore,xqc) Test 
#IOP(5/87=12) Density=Current Pop=(MK,readradii) iop(6/33=2) iop(6/42=6)

holoCaM.loop2.water1.frame28 

   -2  1 
C         79.70200       85.93607       -3.44086
C         79.47794       84.75599       -4.34061
O         78.93832       83.76183       -3.88840
H         80.19622       86.77146       -3.98177
H         78.72100       86.30135       -3.06915
H         80.33691       85.64238       -2.58134
N         79.85848       84.80804       -5.64276
C         79.58071       83.76368       -6.62502
C         80.23440       82.43954       -6.24362
O         81.42853       82.43838       -5.97729
C         80.10069       84.24816       -7.98960
C         79.62506       83.44173       -9.15026
O         80.01110       83.75007      -10.26015
O         78.74161       82.43568       -9.00581
H         80.33227       85.66763       -5.96329
H         78.48004       83.64721       -6.70230
H         81.21285       84.26968       -7.97530
H         79.73415       85.28095       -8.17780
N         79.52140       81.26888       -6.22900
C         80.10436       79.98610       -5.83184
C         80.27140       79.00392       -6.98953
O         80.92866       77.99343       -6.77931
C         79.25822       79.36399       -4.71634
H         78.53168       81.28528       -6.51479
H         81.12828       80.15343       -5.43335
H         78.23092       79.15162       -5.08602
H         79.71085       78.41363       -4.36096
H         79.18670       80.06303       -3.85625
N         79.73669       79.22059       -8.22800
C         79.98658       78.35087       -9.38255
C         80.58707       79.11864      -10.56617
O         80.83307       78.50549      -11.59565
C         78.69950       77.59698       -9.78485
C         77.55682       78.45406      -10.26217
O         77.66566       79.79227      -10.33789
O         76.51104       77.92147      -10.59668
H         79.12391       80.03231       -8.36224
H         80.72271       77.56115       -9.11377
H         78.35473       77.00545       -8.90883
H         78.95025       76.87839      -10.59655
N         80.87653       80.44978      -10.48792
C         81.47578       81.22150      -11.56329
C         80.58532       81.37164      -12.78238
O         81.04906       81.06287      -13.87067
H         80.72134       80.95258       -9.60653
H         82.45461       80.77336      -11.84251
H         81.69371       82.24052      -11.18611
N         79.31218       81.86814      -12.68788
C         78.46394       82.13129      -13.85646
C         77.92025       83.56855      -13.91827
O         77.20274       83.86561      -14.86416
C         77.30045       81.11722      -13.95116
C         76.26769       81.16321      -12.85120
N         75.12228       80.45791      -12.98767
O         76.44232       81.83507      -11.84815
H         78.92970       82.05109      -11.75099
H         79.05584       81.98332      -14.78632
H         77.70346       80.08370      -14.01742
H         76.77172       81.32501      -14.90745
H         74.94837       79.89860      -13.83552
H         74.39455       80.49316      -12.26031
N         78.21542       84.51969      -12.98345
C         77.71138       85.88785      -13.04744
C         76.22571       86.03779      -12.74414
O         75.73654       87.15360      -12.84460
H         78.86775       84.29938      -12.22829
H         77.94014       86.30625      -14.05183
H         78.24895       86.50726      -12.29677
N         75.45294       84.98802      -12.34230
C         74.02802       85.07699      -12.03605
C         73.79485       84.66402      -10.59183
O         74.16525       83.55918      -10.22620
C         73.24198       84.15181      -12.99528
C         71.73366       84.18585      -12.72289
O         73.45866       84.55560      -14.32322
H         75.88824       84.06917      -12.24206
H         73.65457       86.11403      -12.18729
H         73.57392       83.09427      -12.85878
H         74.25911       84.06807      -14.65062
H         71.33987       85.21760      -12.84280
H         71.20842       83.51685      -13.43678
H         71.50660       83.83102      -11.69538
N         73.15466       85.49631       -9.72130
C         72.87874       85.13961       -8.32941
C         72.00152       83.89415       -8.25964
O         70.91627       83.87589       -8.82336
C         72.20813       86.32510       -7.55924
C         73.10854       87.59294       -7.49290
C         71.77661       85.91730       -6.13325
C         74.42638       87.42130       -6.72459
H         72.84249       86.41368      -10.07163
H         73.83933       84.91865       -7.81930
H         71.27939       86.60862       -8.10334
H         72.53310       88.40679       -6.99959
H         73.34943       87.94482       -8.51627
H         72.63769       85.55561       -5.53505
H         71.30703       86.77859       -5.61282
H         71.01807       85.10869       -6.16334
H         74.97610       88.38562       -6.72276
H         74.24639       87.13818       -5.66737
H         75.07838       86.66432       -7.20197
N         72.40963       82.84214       -7.49725
C         71.63509       81.63341       -7.23801
C         71.16264       81.65217       -5.78490
O         71.38141       82.64057       -5.10483
C         72.50889       80.41278       -7.59064
C         72.66829       80.27050       -9.08815
O         73.84693       80.49952       -9.70595
O         71.70475       79.93908       -9.75996
H         73.30868       82.92609       -6.99997
H         70.70349       81.60037       -7.84515
H         72.06362       79.46594       -7.22042
H         73.49026       80.52517       -7.09258
N         70.41254       80.63846       -5.27014
C         69.71792       80.72639       -3.98295
C         70.62086       80.97011       -2.76720
O         70.34678       81.93590       -2.06830
C         68.78866       79.50416       -3.79113
C         67.84546       79.62751       -2.61004
C         66.95432       80.71502       -2.51082
C         67.81843       78.63553       -1.61349
C         66.06575       80.80949       -1.43569
C         66.91942       78.73000       -0.54443
C         66.04581       79.81661       -0.45480
H         70.23733       79.81381       -5.86455
H         69.04299       81.60666       -4.06164
H         69.39048       78.57562       -3.72141
H         68.14998       79.41427       -4.69668
H         66.93804       81.49147       -3.26365
H         68.48103       77.78134       -1.66894
H         65.38681       81.65024       -1.36727
H         66.89547       77.95763        0.21341
H         65.34996       79.88761        0.37170
N         71.68721       80.18382       -2.41138
C         72.47258       80.41302       -1.19819
C         73.27194       81.70624       -1.26964
O         73.56760       82.28602       -0.23416
C         73.35998       79.16505       -1.11584
C         73.58486       78.82364       -2.57351
C         72.19644       79.06048       -3.17289
H         71.83172       80.44172       -0.28911
H         74.27166       79.26787       -0.48818
H         72.74468       78.33488       -0.70023
H         74.29011       79.57969       -2.98223
H         74.01051       77.81863       -2.77705
H         72.32730       79.28115       -4.25288
H         71.52742       78.18921       -3.01992
N         73.65275       82.21020       -2.46858
C         74.38895       83.45570       -2.65993
C         73.53435       84.62673       -2.21429
O         73.98567       85.40118       -1.38257
C         74.80539       83.51999       -4.14540
C         75.85833       82.41156       -4.38992
C         75.90437       81.93478       -5.79888
O         76.09991       82.76026       -6.83557
O         75.70806       80.75024       -6.02186
H         73.39773       81.67253       -3.31017
H         75.32787       83.45580       -2.05962
H         75.23929       84.50079       -4.43977
H         73.89439       83.35914       -4.75933
H         75.63331       81.50586       -3.78800
H         76.83862       82.76482       -4.04550
N         72.26502       84.78041       -2.68160
C         71.36134       85.82314       -2.24180
H         70.47448       85.35428       -1.76370
H         71.83031       86.51038       -1.50778
H         71.02199       86.41324       -3.11703
H         71.89736       84.10189       -3.35412
Ca        75.47926       81.63817       -8.66681
O         76.74435       84.99443       -9.10978
H         77.28119       85.72717       -9.50333
H         76.82618       85.12496       -8.13196

Ca 1.0



