%chk=holoCaM-CaMKII.loop3.water2.frame208.chk
%nprocshared=20
%mem=10GB
%nosave
#b3lyp/svp scf=(tight,noincore,xqc) Test 
#IOP(5/87=12) Density=Current Pop=(MK,readradii) iop(6/33=2) iop(6/42=6)

holoCaM-CaMKII.loop3.water2.frame208 

   0  1 
C         42.49065       69.06740       19.78298
C         43.67536       69.14722       18.86462
O         44.79308       69.16507       19.34968
H         41.53952       69.00342       19.21327
H         42.58023       68.16053       20.41706
H         42.45382       69.96541       20.43439
N         43.50193       69.22727       17.51818
C         44.59033       69.27787       16.54837
C         44.65777       70.70648       16.03526
O         44.33035       70.98050       14.88936
C         44.29315       68.21631       15.46963
C         45.33737       67.97822       14.41374
O         45.04658       67.24341       13.48709
O         46.58509       68.48225       14.46262
H         42.53802       69.28397       17.15292
H         45.56397       69.03252       17.01763
H         43.35382       68.51429       14.95577
H         44.11233       67.23850       15.95795
N         45.03903       71.68557       16.90491
C         45.02659       73.11668       16.60689
C         45.95023       73.42818       15.44400
O         45.48367       73.97709       14.45534
C         45.38957       73.94725       17.86554
C         44.38661       73.69498       19.01547
C         44.67680       74.55555       20.25223
C         43.69076       74.28402       21.40808
N         43.82106       72.92984       21.95626
H         45.33457       71.38098       17.84281
H         43.99132       73.41337       16.32295
H         45.35785       75.02693       17.59863
H         46.41872       73.70134       18.20819
H         44.43309       72.63299       19.31249
H         43.35610       73.91683       18.66179
H         44.58539       75.62492       19.96186
H         45.71393       74.37858       20.61076
H         42.64510       74.45280       21.06660
H         43.90399       75.01265       22.22088
H         43.53610       72.20805       21.25816
H         44.80540       72.75865       22.26578
H         43.18981       72.83603       22.78448
N         47.25925       73.04457       15.46668
C         48.16022       73.20209       14.32173
C         47.56774       72.58369       13.06286
O         47.62616       73.20676       12.01157
C         49.56433       72.61578       14.59577
C         49.57490       71.13111       14.84963
O         50.16959       70.38317       14.09035
O         48.96120       70.62186       15.93200
H         47.60558       72.58036       16.31778
H         48.30808       74.28932       14.13256
H         50.02018       73.12822       15.46945
H         50.20216       72.83187       13.70910
N         46.88702       71.40644       13.12444
C         46.18534       70.84265       11.98773
C         47.12928       70.19098       11.01358
O         47.18331       70.60224        9.86398
H         46.77906       70.94555       14.03741
H         45.56161       71.62862       11.50652
H         45.49122       70.04976       12.33986
N         47.85034       69.10276       11.40719
C         48.69057       68.31041       10.51421
C         48.11357       66.91503       10.27363
O         48.68366       66.18841        9.47031
C         50.14354       68.23435       11.04743
C         50.33410       67.54960       12.38871
N         51.57930       67.38122       12.88727
O         49.38166       67.14153       13.03057
H         47.74853       68.79324       12.37969
H         48.72973       68.79670        9.51551
H         50.55003       69.26528       11.12500
H         50.75241       67.68216       10.29958
H         52.40401       67.70854       12.36486
H         51.71897       66.91167       13.79476
N         46.99380       66.46967       10.91654
C         46.38436       65.17028       10.68815
C         46.47243       64.25668       11.89399
O         45.91969       63.17080       11.82095
H         46.53043       67.07188       11.60454
H         46.86315       64.63558        9.83962
H         45.31689       65.33134       10.42317
N         47.19832       64.58903       13.00555
C         47.40213       63.67509       14.12650
C         47.04326       64.32795       15.44927
O         46.90336       65.53514       15.51407
C         48.89389       63.27674       14.17211
C         49.36074       62.65937       12.87435
C         50.35227       63.29161       12.10136
C         48.80995       61.44934       12.42347
C         50.77988       62.72273       10.89778
C         49.23957       60.88235       11.22008
C         50.22639       61.51802       10.45262
O         50.64931       60.98166        9.29008
H         47.68925       65.48579       13.03666
H         46.77532       62.76735       14.00210
H         49.08243       62.56189       15.00212
H         49.49086       64.19407       14.37711
H         50.79372       64.22651       12.42497
H         48.04831       60.94490       13.00379
H         51.54240       63.21930       10.31021
H         48.80458       59.94923       10.88578
H         50.29257       60.14966        8.94744
N         46.89805       63.55450       16.56358
C         46.71161       64.08911       17.91092
C         47.73096       63.41393       18.81077
O         47.73949       62.19327       18.86906
C         45.26910       63.82329       18.43920
C         44.23041       64.50820       17.51568
C         45.13197       64.35214       19.88838
C         42.77490       64.23686       17.90383
H         46.93182       62.53099       16.45022
H         46.86159       65.19214       17.92649
H         45.08061       62.72695       18.44016
H         44.36114       64.13352       16.47861
H         44.40223       65.60486       17.51840
H         44.13303       64.13367       20.31249
H         45.85898       63.85989       20.56520
H         45.30630       65.45002       19.92356
H         42.57470       63.14472       17.90487
H         42.52847       64.65987       18.89825
H         42.10216       64.72186       17.16561
N         48.57538       64.14775       19.59022
C         49.50230       63.52781       20.53490
C         49.01929       63.75422       21.95700
O         48.01771       64.41928       22.15180
C         50.92717       64.05175       20.29755
O         51.00095       65.43649       20.51550
H         48.50861       65.17578       19.56767
H         49.52403       62.42607       20.39332
H         51.25461       63.79320       19.26258
H         51.64542       63.55068       20.97965
H         50.92593       65.87588       19.62816
N         49.66403       63.16912       23.00591
C         49.20795       63.28193       24.39069
C         49.20244       64.71938       24.85965
O         48.19439       65.16490       25.39188
C         50.10265       62.45175       25.31386
H         50.49555       62.59435       22.80576
H         48.17942       62.86343       24.47670
H         49.72861       62.51674       26.35883
H         50.07643       61.38612       25.00198
H         51.15194       62.81327       25.28193
N         50.29070       65.51345       24.65712
C         50.36195       66.91415       25.05924
C         49.15677       67.68456       24.57307
O         48.52345       68.36321       25.36971
C         51.63675       67.55668       24.49648
H         51.09346       65.10756       24.15029
H         50.40096       66.98187       26.16903
H         52.53357       67.02376       24.87599
H         51.64186       67.51265       23.38500
H         51.70165       68.62129       24.80833
N         48.76583       67.59710       23.27478
C         47.62515       68.33006       22.74881
C         46.34564       67.96364       23.48339
O         45.72201       68.84619       24.05707
C         47.46154       68.09370       21.24098
C         48.70340       68.53838       20.44710
C         48.38371       68.56823       18.99405
O         47.51310       69.32164       18.59299
O         49.02888       67.79455       18.10927
H         49.30695       66.98364       22.64828
H         47.81157       69.41932       22.88794
H         46.59476       68.70810       20.92860
H         47.23565       67.02765       21.01203
H         49.55678       67.85465       20.63265
H         48.99994       69.56733       20.74020
N         45.90014       66.67932       23.52211
C         44.70047       66.29568       24.23275
H         43.81917       66.81376       23.79962
H         44.54676       65.19831       24.14963
H         44.79710       66.55755       25.30811
H         46.43332       65.94470       23.04541
Ca        48.00249       67.99915       16.13448
O         50.77313       65.83280       16.30057
H         51.75749       65.89056       16.39181
H         50.54329       64.93610       16.65175
O         51.58682       68.91897       16.70896
H         52.38661       69.16380       16.17921
H         51.93991       68.37140       17.45465

Ca 1.0



