%chk=holoCaM.loop1.water2.frame63.chk
%nprocshared=20
%mem=10GB
%nosave
#b3lyp/svp scf=(tight,noincore,xqc) Test 
#IOP(5/87=12) Density=Current Pop=(MK,readradii) iop(6/33=2) iop(6/42=6)

holoCaM.loop1.water2.frame63 

   0  1 
C         77.02254       24.36306        9.43723
C         76.71575       25.71579       10.00090
O         76.07437       25.80920       11.03806
H         78.12455       24.22927        9.39057
H         76.59032       23.56188       10.07207
H         76.60366       24.28365        8.41246
N         77.17530       26.82375        9.36266
C         76.97598       28.17142        9.87241
C         75.49369       28.52683        9.88346
O         74.88028       28.57568        8.82583
C         77.77565       29.15082        9.00291
C         77.78797       30.54179        9.53027
O         78.38072       31.39262        8.90286
O         77.18345       30.86573       10.68477
H         77.72927       26.68937        8.50133
H         77.39531       28.20648       10.90323
H         77.36283       29.15508        7.97013
H         78.83500       28.81536        8.95581
N         74.84610       28.73236       11.06462
C         73.40252       28.91185       11.15855
C         72.96311       30.33114       10.80215
O         72.05722       30.46045        9.99077
C         72.89908       28.43998       12.54451
C         71.36374       28.27571       12.57080
C         70.84304       27.50559       13.79713
C         71.05873       28.23499       15.12775
N         70.49673       27.45942       16.23545
H         75.38134       28.60912       11.93586
H         72.92855       28.19343       10.44994
H         73.25771       29.11020       13.35412
H         73.33071       27.42721       12.71436
H         71.06491       27.66476       11.68993
H         70.86438       29.26426       12.48779
H         71.32757       26.50432       13.83624
H         69.75045       27.34761       13.65962
H         70.55864       29.22741       15.08502
H         72.14420       28.38887       15.30731
H         69.47089       27.31180       16.09115
H         70.97600       26.53208       16.30643
H         70.63845       27.98233       17.12938
N         73.56127       31.44054       11.34279
C         73.11397       32.81279       11.04910
C         73.91307       33.48473        9.93189
O         73.58135       34.60679        9.57462
C         73.08093       33.66416       12.34481
C         74.44031       34.01717       12.89080
O         74.53964       34.52625       13.99536
O         75.55034       33.74575       12.18504
H         74.37567       31.30499       11.95953
H         72.06377       32.76961       10.68597
H         72.52142       33.08383       13.11158
H         72.53635       34.61680       12.17261
N         74.94130       32.84837        9.30151
C         75.63218       33.39075        8.14343
C         76.47597       34.62062        8.41216
O         76.22143       35.64087        7.78836
H         75.19266       31.89351        9.58573
H         74.87832       33.61127        7.35562
H         76.31192       32.61449        7.73413
N         77.55002       34.57605        9.25655
C         78.50550       35.68210        9.39641
C         79.92579       35.30172        8.94809
O         80.77640       36.18150        8.92888
C         78.48560       36.24451       10.83264
C         78.76506       35.22365       11.89437
O         77.86774       35.01109       12.87348
O         79.81426       34.60875       11.89856
H         77.71855       33.71069        9.78972
H         78.21288       36.52282        8.73118
H         77.48350       36.68162       11.02881
H         79.23422       37.06197       10.91809
N         80.25858       34.03551        8.56280
C         81.56216       33.63091        8.06026
C         82.29355       32.67444        8.98748
O         83.32993       32.17289        8.58199
H         79.55373       33.30324        8.60042
H         82.23092       34.50271        7.89319
H         81.40543       33.14001        7.07470
N         81.87852       32.45335       10.27290
C         82.66334       31.69245       11.25026
C         81.77845       30.76104       12.07581
O         80.57406       30.74047       11.87800
C         83.44251       32.67594       12.16026
C         84.48644       33.48750       11.37327
O         82.56876       33.52573       12.85919
H         81.04890       32.94835       10.61479
H         83.41078       31.05251       10.73225
H         84.02105       32.09909       12.91052
H         82.27248       34.23898       12.23635
H         84.00624       34.12699       10.60295
H         85.05136       34.14452       12.06649
H         85.20307       32.80222       10.87204
N         82.34321       29.93317       13.01403
C         81.58792       28.95117       13.78900
C         81.73170       29.21075       15.29145
O         82.81570       29.05024       15.83176
C         82.07263       27.52232       13.38396
C         81.83153       27.22960       11.87491
C         81.47213       26.40147       14.24708
C         80.35779       27.19248       11.44174
H         83.36318       29.95671       13.14921
H         80.51846       29.02474       13.55291
H         83.17246       27.48289       13.55200
H         82.28383       26.24499       11.62713
H         82.35593       27.99258       11.26129
H         81.87800       25.41727       13.92992
H         81.74798       26.53567       15.31076
H         80.37313       26.37197       14.16348
H         79.85905       28.16671       11.60528
H         80.29915       26.96809       10.35651
H         79.79621       26.40089       11.97788
N         80.64336       29.60180       16.02714
C         80.64233       29.75030       17.48912
C         80.68568       28.38314       18.17107
O         80.73609       27.37452       17.48838
C         79.37342       30.51854       17.97451
C         79.33437       31.96585       17.47037
O         78.19207       29.82009       17.65757
H         79.77277       29.79894       15.51731
H         81.52435       30.35159       17.80332
H         79.40136       30.62255       19.07769
H         77.90374       30.07919       16.74519
H         80.24757       32.51103       17.79175
H         79.26487       31.98865       16.36880
H         78.45208       32.48697       17.89788
N         80.62556       28.27559       19.52937
C         80.55966       26.99932       20.24385
C         79.33866       26.18046       19.82932
O         79.49373       25.02873       19.45054
C         80.51567       27.22321       21.78439
C         81.81842       27.82525       22.31782
O         79.43981       28.05955       22.13211
H         80.60316       29.14290       20.08367
H         81.47022       26.40007       20.01792
H         80.38600       26.22381       22.26420
H         79.23645       27.89666       23.08996
H         82.01071       28.82725       21.88314
H         81.75187       27.93097       23.42189
H         82.67096       27.15476       22.08209
N         78.08925       26.71061       19.92197
C         76.85081       25.96585       19.68261
C         76.78946       25.43487       18.26584
O         76.49649       24.26041       18.08826
C         75.63071       26.85281       20.02142
C         75.63266       27.18078       21.53099
C         74.52116       28.14468       21.94473
C         74.65201       28.46843       23.44323
N         73.65745       29.45134       23.86488
H         78.01982       27.70093       20.19423
H         76.80028       25.09145       20.37016
H         74.68810       26.31174       19.78263
H         75.66505       27.78441       19.41407
H         76.59169       27.65739       21.81488
H         75.53808       26.23463       22.10931
H         73.52578       27.69639       21.73481
H         74.62583       29.08494       21.36096
H         75.66710       28.87994       23.64609
H         74.53129       27.53669       24.04040
H         73.78621       30.34026       23.32879
H         72.69355       29.07754       23.71140
H         73.78956       29.65147       24.88296
N         77.12799       26.22483       17.21312
C         77.18724       25.74467       15.83200
C         78.09365       24.53102       15.73896
O         77.64621       23.49242       15.27234
C         77.67740       26.87296       14.90474
C         76.63135       27.99067       14.83898
C         77.07095       29.18317       14.06138
O         78.15288       29.24113       13.50560
O         76.22881       30.21527       13.98513
H         77.41597       27.19262       17.42208
H         76.17208       25.43831       15.49153
H         77.83866       26.48617       13.87339
H         78.63728       27.27729       15.29482
H         76.39050       28.35769       15.85531
H         75.69824       27.59547       14.38261
N         79.36239       24.57110       16.22075
C         80.22502       23.41165       16.23123
H         81.19395       23.66771       16.71058
H         79.74922       22.59639       16.81846
H         80.41341       23.06534       15.19425
H         79.71356       25.44156       16.63035
Ca        76.78780       32.14102       13.04539
O         79.89622       33.32539       14.38961
H         79.44658       34.05063       14.89186
H         80.81113       33.29977       14.76497
O         76.62504       32.76327       15.85545
H         76.32361       33.07767       16.74342
H         76.95431       33.57952       15.40186

Ca 1.0



