%chk=holoCaM-CaMKII.loop2.water1.frame254.chk
%nprocshared=20
%mem=10GB
%nosave
#b3lyp/svp scf=(tight,noincore,xqc) Test 
#IOP(5/87=12) Density=Current Pop=(MK,readradii) iop(6/33=2) iop(6/42=6)

holoCaM-CaMKII.loop2.water1.frame254 

   -2  1 
C        108.05962       98.72677       46.85370
C        108.47712       98.45005       45.43655
O        109.16751       97.47347       45.18489
H        106.94933       98.70485       46.91737
H        108.46550       97.96553       47.55222
H        108.41282       99.73239       47.16389
N        108.04789       99.27675       44.44712
C        108.28596       99.04997       43.02589
C        109.75696       99.13616       42.64092
O        110.35830      100.18635       42.81900
C        107.49144      100.09463       42.21710
C        107.59818       99.87590       40.73887
O        108.05108      100.75753       40.02732
O        107.18418       98.71623       40.19170
H        107.45711      100.07685       44.72510
H        107.88174       98.04995       42.76498
H        107.85427      101.11484       42.47252
H        106.42073      100.04038       42.49572
N        110.37095       98.07915       42.03127
C        111.71312       98.13527       41.45989
C        111.71488       97.80438       39.96034
O        112.78975       97.82350       39.37633
C        112.61953       97.15431       42.21193
H        109.85367       97.19430       41.94013
H        112.14633       99.15200       41.57933
H        112.24766       96.11260       42.10473
H        113.65894       97.20504       41.82070
H        112.64674       97.41592       43.29121
N        110.57675       97.46089       39.27705
C        110.56443       97.02566       37.87684
C        109.63540       97.85186       36.97584
O        109.59617       97.57270       35.78504
C        110.22028       95.51887       37.82896
C        108.97437       95.15784       38.58746
O        109.04287       94.30558       39.62790
O        107.90193       95.63758       38.27851
H        109.67702       97.43515       39.77379
H        111.57643       97.12600       37.42715
H        111.06055       94.95980       38.29375
H        110.13174       95.17792       36.77483
N        108.89544       98.89824       37.44302
C        108.08040       99.76807       36.59763
C        106.86394       99.13156       35.93742
O        106.18900       99.84355       35.20687
H        108.97256       99.15070       38.43159
H        108.73042      100.19788       35.80409
H        107.70489      100.61256       37.21487
N        106.51779       97.82411       36.10875
C        105.40408       97.20246       35.39349
C        104.03660       97.78869       35.73403
O        103.18566       97.78821       34.85478
C        105.41097       95.66185       35.52739
C        105.25831       95.10779       36.92203
N        105.23148       93.76971       37.10377
O        105.17422       95.84533       37.89015
H        107.09932       97.23511       36.70920
H        105.57296       97.38770       34.30790
H        106.37392       95.28021       35.12275
H        104.59080       95.25092       34.89930
H        105.31131       93.12576       36.30417
H        105.12847       93.37538       38.04575
N        103.73415       98.27323       36.97488
C        102.44155       98.86298       37.30848
C        101.65638       98.07402       38.34215
O        100.60372       98.55141       38.73880
H        104.44837       98.24558       37.71720
H        101.78920       98.95691       36.41307
H        102.62367       99.88903       37.69271
N        102.06525       96.85167       38.79154
C        101.30888       96.03626       39.74166
C        102.14624       95.70855       40.96884
O        103.31282       96.06350       41.02536
C        100.85796       94.72067       39.04492
C         99.85359       94.99424       37.92582
O        101.96011       94.03251       38.50719
H        102.92913       96.44778       38.41779
H        100.40589       96.57561       40.10142
H        100.32203       94.05883       39.76119
H        102.44967       93.62193       39.26662
H         98.95847       95.50940       38.33607
H        100.30400       95.62240       37.12963
H         99.52519       94.03215       37.47682
N        101.60055       94.96226       41.97289
C        102.35709       94.44285       43.10347
C        102.69519       93.00216       42.77899
O        101.79790       92.24014       42.44682
C        101.53341       94.52295       44.42749
C        101.13363       95.98332       44.75265
C        102.33657       93.90026       45.59265
C        100.25443       96.10758       46.00347
H        100.62797       94.63802       41.87150
H        103.29989       95.01535       43.24970
H        100.60124       93.92866       44.29615
H        100.54948       96.39300       43.90138
H        102.04276       96.60930       44.88574
H        101.74633       93.86599       46.52836
H        102.59353       92.84681       45.37463
H        103.27324       94.46886       45.77340
H         99.34056       95.48463       45.89793
H        100.79969       95.80401       46.92019
H         99.94984       97.16541       46.14196
N        103.97397       92.55139       42.90685
C        104.35566       91.16557       42.66337
C        104.50478       90.45495       43.98758
O        104.36426       91.08545       45.02453
C        105.66696       91.10706       41.85772
C        105.53284       91.78639       40.52802
O        105.22359       93.09394       40.46999
O        105.71792       91.16253       39.49566
H        104.69018       93.19003       43.27810
H        103.55476       90.63366       42.10464
H        105.96063       90.04772       41.69471
H        106.47996       91.60628       42.42935
N        104.74146       89.11310       44.03343
C        104.81461       88.40484       45.30158
C        105.94902       88.94030       46.15955
O        105.67836       89.23274       47.31630
C        104.90455       86.87308       45.12780
C        104.79328       86.19331       46.47289
C        105.88415       85.49141       47.01129
C        103.59713       86.27467       47.21040
C        105.78108       84.88945       48.26929
C        103.49731       85.66715       48.46378
C        104.58916       84.97687       48.99435
H        104.82576       88.58410       43.15332
H        103.85376       88.59154       45.83111
H        105.84757       86.58257       44.63568
H        104.07709       86.51104       44.48042
H        106.81722       85.42296       46.46604
H        102.74052       86.80716       46.81581
H        106.62716       84.35796       48.68405
H        102.57354       85.73484       49.02402
H        104.51121       84.51094       49.96773
N        107.22973       89.12560       45.70839
C        108.29691       89.64788       46.54611
C        107.99924       91.04176       47.08037
O        108.37483       91.32545       48.20828
C        109.52963       89.63768       45.63080
C        109.20536       88.48929       44.69194
C        107.74217       88.78237       44.39464
H        108.45965       88.93034       47.38206
H        109.55119       90.55864       45.00477
H        110.49783       89.55320       46.17093
H        109.85695       88.41918       43.79549
H        109.26551       87.52972       45.25834
H        107.67157       89.67698       43.73592
H        107.26454       87.92617       43.89697
N        107.34427       91.97169       46.31744
C        107.07873       93.32688       46.80339
C        105.98613       93.36998       47.86785
O        105.86158       94.39008       48.53207
C        106.65331       94.28272       45.67068
C        107.64804       94.32584       44.50406
C        107.30056       95.46346       43.55012
O        108.15917       95.45047       42.44768
O        105.99377       95.36053       43.06339
H        107.05997       91.71404       45.36165
H        108.03093       93.71810       47.22621
H        106.57129       95.30532       46.10455
H        105.65501       93.98923       45.28103
H        107.64933       93.35879       43.95802
H        108.67072       94.51767       44.89325
N        105.10491       92.34227       48.02475
C        104.00348       92.34906       48.96582
H        103.04703       92.25521       48.40757
H        104.09954       91.48010       49.64971
H        103.96571       93.27763       49.57172
H        105.18142       91.52071       47.42125
Ca       106.52929       95.56790       40.87320
O        104.95555       97.98302       42.04768
H        104.64746       98.56679       41.30923
H        104.62679       98.42236       42.87098

Ca 1.0



