%chk=holoCaM.loop3.water2.frame176.chk
%nprocshared=20
%mem=10GB
%nosave
#b3lyp/svp scf=(tight,noincore,xqc) Test 
#IOP(5/87=12) Density=Current Pop=(MK,readradii) iop(6/33=2) iop(6/42=6)

holoCaM.loop3.water2.frame176 

   0  1 
C         24.38212      -10.79867       89.41733
C         24.20344      -10.07248       90.71302
O         25.17468       -9.92967       91.44086
H         25.12408      -10.26360       88.78958
H         24.74890      -11.82573       89.62694
H         23.42424      -10.87115       88.86180
N         22.98657       -9.56847       91.06399
C         22.75135       -8.89693       92.33226
C         22.82121       -9.93169       93.44600
O         21.81779      -10.57582       93.71672
C         21.37961       -8.17822       92.29019
C         21.10739       -7.26450       93.44881
O         22.01221       -7.07352       94.42655
O         20.05723       -6.64738       93.47516
H         22.20650       -9.65411       90.39461
H         23.52522       -8.11429       92.46165
H         20.56283       -8.92725       92.20651
H         21.33768       -7.54062       91.38663
N         23.98780      -10.16216       94.11525
C         24.10477      -11.15309       95.18339
C         24.17817      -10.46706       96.53325
O         24.24822      -11.16994       97.53749
C         25.29391      -12.10631       94.93770
C         25.15104      -12.87758       93.61427
C         26.26654      -13.91814       93.44309
C         26.12327      -14.66279       92.10698
N         27.15460      -15.69038       91.96302
H         24.81700       -9.59093       93.89603
H         23.19003      -11.78368       95.23125
H         25.32166      -12.84668       95.76897
H         26.25044      -11.53985       94.94173
H         25.18236      -12.16258       92.76699
H         24.17157      -13.40463       93.59865
H         26.20823      -14.65185       94.27727
H         27.25833      -13.41666       93.47724
H         26.20763      -13.93623       91.26793
H         25.12197      -15.14535       92.05297
H         28.10572      -15.25703       91.99766
H         27.06187      -16.40051       92.72556
H         27.03404      -16.16985       91.04145
N         24.03959       -9.11432       96.65201
C         23.83052       -8.43573       97.91772
C         22.35345       -8.03938       98.06602
O         21.98966       -7.52507       99.11019
C         24.83542       -7.27528       98.07335
C         24.72545       -6.23271       96.99589
O         23.59886       -5.51612       96.86289
O         25.66659       -6.01648       96.24914
H         23.94318       -8.53065       95.80661
H         24.02579       -9.13304       98.76281
H         25.86125       -7.70708       98.04846
H         24.69756       -6.78741       99.06117
N         21.43005       -8.35136       97.09605
C         19.98853       -8.24787       97.26975
C         19.39666       -6.86201       97.41707
O         18.19281       -6.80297       97.62735
H         21.72820       -8.81251       96.22887
H         19.71180       -8.84504       98.16512
H         19.49249       -8.71912       96.39156
N         20.12460       -5.70950       97.34760
C         19.51428       -4.40626       97.62759
C         18.44962       -3.97675       96.61397
O         17.76122       -3.00151       96.87796
C         20.58393       -3.30390       97.78486
C         21.23343       -2.89041       96.48328
N         21.16485       -1.60512       96.06368
O         21.82949       -3.71216       95.80591
H         21.13581       -5.76950       97.17992
H         19.02271       -4.50841       98.62129
H         21.36383       -3.65406       98.49565
H         20.09882       -2.41474       98.24245
H         20.67044       -0.89114       96.61831
H         21.61368       -1.31779       95.18238
N         18.28436       -4.62562       95.42624
C         17.29212       -4.26291       94.42355
C         17.92451       -3.78786       93.12967
O         17.20225       -3.64256       92.15378
H         18.90002       -5.41404       95.19916
H         16.60100       -3.46841       94.77775
H         16.68667       -5.17059       94.21470
N         19.25029       -3.47594       93.05547
C         19.91511       -3.00961       91.84277
C         21.14551       -3.91282       91.56704
O         21.90751       -3.79728       92.74179
C         20.38671       -1.53287       92.00962
C         19.27521       -0.55743       92.28887
C         18.64623       -0.52339       93.54489
C         18.88080        0.35708       91.29866
C         17.63410        0.40441       93.80122
C         17.86261        1.27716       91.55358
C         17.23547        1.30416       92.80712
O         16.25408        2.19034       93.06702
H         19.81969       -3.53284       93.91080
H         19.22743       -3.04794       90.96955
H         20.88693       -1.22881       91.06513
H         21.14603       -1.42703       92.81309
H         18.94708       -1.20102       94.33273
H         19.35627        0.35456       90.32527
H         17.16230        0.42520       94.77531
H         17.56548        1.96940       90.77629
H         15.94858        2.82552       92.40380
N         21.84646       -3.39531       90.37011
C         23.12008       -3.98421       89.90488
C         24.01664       -2.81651       89.55933
O         23.62214       -1.99756       88.73910
C         22.96115       -4.91253       88.64607
C         22.11328       -6.16190       88.97749
C         24.35080       -5.34513       88.10962
C         21.82683       -7.05860       87.76543
H         21.18660       -3.26521       89.56711
H         23.60336       -4.58250       90.68350
H         22.45212       -4.33601       87.84196
H         21.13249       -5.83733       89.38258
H         22.64138       -6.76488       89.74560
H         24.26920       -5.94668       87.18370
H         24.95988       -4.46615       87.82272
H         24.90695       -5.93052       88.87373
H         22.75256       -7.50328       87.34731
H         21.17688       -7.90353       88.07455
H         21.30723       -6.48130       86.97150
N         25.26697       -2.71378       90.09423
C         26.20095       -1.66845       89.69514
C         27.22483       -2.22985       88.73085
O         27.23727       -3.42582       88.47974
C         26.87238       -1.03404       90.92574
O         27.66930       -1.97096       91.60450
H         25.59986       -3.45862       90.72369
H         25.66073       -0.86575       89.14752
H         26.10618       -0.59208       91.60202
H         27.52551       -0.19155       90.61576
H         27.12384       -2.34056       92.34554
N         28.09519       -1.39417       88.10755
C         29.08706       -1.85212       87.14460
C         30.10091       -2.76912       87.79751
O         30.35760       -3.84186       87.26991
C         29.81082       -0.65225       86.52672
H         28.02907       -0.38397       88.30897
H         28.57934       -2.38316       86.30703
H         29.07508        0.00472       86.01459
H         30.34007       -0.06082       87.30328
H         30.54706       -1.00173       85.77128
N         30.71847       -2.39721       88.95501
C         31.78200       -3.16672       89.59261
C         31.38893       -4.60775       89.84204
O         32.06553       -5.49245       89.33551
C         32.19738       -2.50065       90.91113
H         30.42857       -1.50753       89.39084
H         32.66532       -3.16483       88.91630
H         32.54697       -1.46423       90.71951
H         31.34126       -2.45535       91.61903
H         33.02400       -3.06950       91.38706
N         30.31513       -4.92580       90.61298
C         29.93154       -6.30853       90.88464
C         29.63500       -7.05224       89.59021
O         30.17691       -8.12952       89.38782
C         28.76584       -6.36572       91.88841
C         27.44913       -5.84950       91.32739
C         26.44227       -5.72813       92.40550
O         26.58864       -4.89597       93.28780
O         25.30104       -6.41808       92.32861
H         29.76617       -4.15637       91.02709
H         30.77780       -6.81128       91.40343
H         29.06180       -5.76124       92.77568
H         28.60412       -7.41244       92.22892
H         27.06895       -6.54591       90.54942
H         27.56796       -4.84177       90.87935
N         28.82991       -6.50142       88.63905
C         28.55692       -7.14952       87.37678
H         27.91593       -6.49364       86.74840
H         29.50810       -7.33530       86.83431
H         28.02680       -8.10911       87.54901
H         28.41990       -5.57270       88.79759
Ca        23.72217       -5.04494       92.96149
O         23.96874       -1.75548       93.19834
H         23.78515       -0.86676       92.80280
H         24.92337       -1.72216       93.45675
O         24.74322       -2.61657       96.16699
H         25.65493       -2.30110       95.94455
H         24.22595       -1.78762       96.32766

Ca 1.0



