%chk=holoCaM-CaMKII.loop3.water2.frame326.chk
%nprocshared=20
%mem=10GB
%nosave
#b3lyp/svp scf=(tight,noincore,xqc) Test 
#IOP(5/87=12) Density=Current Pop=(MK,readradii) iop(6/33=2) iop(6/42=6)

holoCaM-CaMKII.loop3.water2.frame326 

   0  1 
C         28.74870       60.33053       78.88852
C         28.27546       61.05735       80.11008
O         27.43838       60.53526       80.83330
H         29.84386       60.16121       78.96126
H         28.24057       59.34754       78.79239
H         28.53203       60.93886       77.98588
N         28.79335       62.27941       80.41251
C         28.40735       63.02452       81.60312
C         26.93351       63.39963       81.51826
O         26.54689       64.10771       80.59850
C         29.31085       64.26237       81.75059
C         29.16344       64.95899       83.06800
O         29.84341       65.94201       83.29601
O         28.32067       64.50334       84.01259
H         29.51483       62.66969       79.78542
H         28.59400       62.36732       82.48053
H         29.11179       64.97545       80.92066
H         30.37254       63.93752       81.68496
N         26.04362       62.88330       82.41092
C         24.59624       63.02826       82.27136
C         24.10638       64.46619       82.43131
O         23.09878       64.79036       81.81843
C         23.89311       62.02331       83.21086
C         22.37106       61.92087       83.04311
C         21.84299       60.71213       83.83569
C         20.31888       60.57964       83.73530
N         19.85701       59.36911       84.41692
H         26.40843       62.26709       83.15426
H         24.34020       62.70153       81.23753
H         24.12149       62.25942       84.26798
H         24.32330       61.02314       82.97347
H         22.12105       61.76985       81.97023
H         21.89413       62.85970       83.39832
H         22.12836       60.80382       84.90666
H         22.30995       59.78888       83.42438
H         20.01405       60.53022       82.66655
H         19.84232       61.47207       84.19815
H         18.81421       59.31862       84.36092
H         20.25863       58.52219       83.95157
H         20.14308       59.38444       85.42282
N         24.74239       65.37650       83.23048
C         24.29435       66.77221       83.37021
C         25.35625       67.80591       82.99672
O         24.97108       68.95406       82.81797
C         23.71427       67.04692       84.78071
C         24.52671       66.40696       85.86482
O         24.02040       65.52464       86.54077
O         25.84106       66.64237       85.99089
H         25.55751       65.05890       83.77401
H         23.46723       66.97341       82.65458
H         22.70404       66.58334       84.82688
H         23.58605       68.13641       84.95764
N         26.68469       67.51775       82.86933
C         27.66695       68.50584       82.43231
C         28.48578       69.10139       83.56228
O         29.32127       69.94699       83.27481
H         27.02650       66.57885       83.09824
H         27.16387       69.36359       81.93496
H         28.32605       68.04069       81.66836
N         28.26750       68.77686       84.86957
C         28.92298       69.46689       85.98123
C         30.43192       69.26755       86.05844
O         31.04590       69.93689       86.87935
C         28.26058       69.08422       87.32782
C         28.37682       67.62551       87.71443
N         27.81208       67.19197       88.86354
O         28.96649       66.83015       86.99921
H         27.54068       68.08790       85.08718
H         28.74176       70.55596       85.83706
H         27.18001       69.33909       87.26768
H         28.70693       69.69820       88.14015
H         27.30840       67.84534       89.48072
H         27.87559       66.20055       89.13581
N         31.10164       68.37959       85.26825
C         32.54485       68.21344       85.31231
C         32.98998       66.83674       85.75798
O         34.19399       66.64962       85.84156
H         30.58098       67.80464       84.59877
H         33.00886       68.93977       86.01349
H         32.95837       68.41956       84.30181
N         32.11714       65.82360       86.05911
C         32.58709       64.52131       86.54411
C         31.53325       63.42011       86.43851
O         30.37871       63.68785       86.14417
C         33.20608       64.66670       87.95716
C         32.30350       65.38976       88.93654
C         31.19347       64.75558       89.51562
C         32.58296       66.72623       89.28360
C         30.38618       65.44435       90.43143
C         31.76576       67.41548       90.18223
C         30.66796       66.77805       90.76312
O         29.89526       67.45500       91.63707
H         31.11055       65.97424       85.92841
H         33.37789       64.17600       85.84126
H         34.12860       65.27104       87.84175
H         33.54676       63.69521       88.37421
H         30.96464       63.72668       89.27277
H         33.42872       67.24419       88.84867
H         29.54156       64.94447       90.88547
H         31.98941       68.44614       90.42956
H         29.12722       67.05297       92.06708
N         31.94473       62.11646       86.52035
C         31.11821       60.96707       86.15107
C         31.06550       59.95455       87.28987
O         32.10204       59.57728       87.81574
C         31.67842       60.33805       84.83597
C         31.60654       61.39670       83.69618
C         30.88639       59.06899       84.45389
C         32.13378       60.92660       82.34030
H         32.93682       61.93048       86.73059
H         30.08354       61.28485       85.91358
H         32.73990       60.04336       84.99428
H         32.20906       62.28480       83.98100
H         30.55472       61.72560       83.56394
H         29.81732       59.31020       84.27324
H         31.31039       58.59054       83.54870
H         30.95216       58.30555       85.25602
H         31.52108       60.09872       81.93039
H         32.07194       61.76731       81.61630
H         33.19275       60.60649       82.42661
N         29.86183       59.43091       87.66776
C         29.66231       58.45308       88.72994
C         29.11548       57.14771       88.15778
O         28.95749       57.03752       86.95163
C         28.70443       59.05236       89.77572
O         27.44059       59.30520       89.21632
H         29.02429       59.71604       87.15289
H         30.62426       58.22306       89.23676
H         29.15157       59.98460       90.19503
H         28.57255       58.36549       90.63612
H         27.37536       60.28350       89.06157
N         28.82947       56.09794       88.98089
C         28.37046       54.79549       88.50153
C         27.04433       54.87168       87.76635
O         26.98407       54.43927       86.62346
C         28.23781       53.81551       89.67392
H         28.98470       56.21791       89.99285
H         29.14064       54.37917       87.81383
H         27.48871       54.17408       90.41183
H         27.92414       52.81599       89.30260
H         29.21622       53.70556       90.18731
N         25.93102       55.38122       88.36743
C         24.61694       55.39504       87.72717
C         24.63274       56.12913       86.40168
O         23.94115       55.70155       85.48747
C         23.56549       56.01618       88.65198
H         26.02027       55.75803       89.32397
H         24.30297       54.34355       87.53858
H         23.81503       57.07458       88.87826
H         22.56277       55.97679       88.17285
H         23.51434       55.44509       89.60378
N         25.41863       57.22635       86.21542
C         25.49382       57.93484       84.94124
C         25.99953       56.99187       83.86392
O         25.29201       56.77071       82.89036
C         26.38124       59.19925       85.05531
C         25.78027       60.18574       86.07537
C         26.53521       61.47725       86.18928
O         27.69470       61.50551       86.54959
O         25.89506       62.62928       85.96725
H         25.99499       57.54991       87.00567
H         24.47257       58.27963       84.65845
H         26.42304       59.69586       84.06042
H         27.41595       58.92378       85.35372
H         25.74861       59.73162       87.08436
H         24.73550       60.41612       85.77510
N         27.19645       56.35879       83.99691
C         27.67182       55.39287       83.03032
H         28.65442       54.98695       83.35299
H         26.95277       54.54806       82.95647
H         27.78797       55.87013       82.03514
H         27.77763       56.54336       84.82444
Ca        26.77555       64.65474       86.37686
O         28.12619       63.30055       89.15500
H         27.65605       63.72545       89.91593
H         28.70187       62.61282       89.57397
O         25.09980       63.45358       88.75764
H         25.03240       62.86909       89.55349
H         24.41996       63.09908       88.13156

Ca 1.0



