%chk=holoCaM-CaMKII.loop2.water2.frame151.chk
%nprocshared=20
%mem=10GB
%nosave
#b3lyp/svp scf=(tight,noincore,xqc) Test 
#IOP(5/87=12) Density=Current Pop=(MK,readradii) iop(6/33=2) iop(6/42=6)

holoCaM-CaMKII.loop2.water2.frame151 

   -2  1 
C          2.09758       -8.46973       39.23570
C          1.25227       -8.47508       37.99092
O          0.24469       -9.16432       37.95399
H          2.96193       -7.77623       39.14020
H          1.47623       -8.10798       40.08400
H          2.47694       -9.48465       39.46365
N          1.56973       -7.65538       36.95627
C          0.67220       -7.39339       35.83767
C          0.64239       -8.48360       34.77629
O          1.68826       -8.94612       34.34140
C          1.06450       -6.06546       35.20278
C          0.11696       -5.65500       34.11616
O          0.61982       -5.42071       33.03171
O         -1.24015       -5.50976       34.26528
H          2.41078       -7.06383       37.05808
H         -0.34713       -7.22057       36.23891
H          2.09751       -6.14593       34.78762
H          1.09875       -5.27843       35.97322
N         -0.56079       -8.83805       34.23584
C         -0.74612       -9.78224       33.14276
C         -1.46796       -9.17388       31.92618
O         -1.58372       -9.88374       30.93622
C         -1.58861      -10.94814       33.67430
H         -1.40184       -8.40113       34.62236
H          0.23843      -10.17351       32.80404
H         -2.58371      -10.57327       34.00552
H         -1.74465      -11.72333       32.89532
H         -1.08703      -11.41656       34.54744
N         -2.05333       -7.93110       31.93997
C         -2.93436       -7.44742       30.86410
C         -2.70786       -5.98168       30.44314
O         -3.41345       -5.51482       29.56005
C         -4.39902       -7.70806       31.28500
C         -4.87052       -6.95677       32.50014
O         -4.15916       -6.13813       33.05040
O         -6.10344       -7.18918       32.98640
H         -2.01802       -7.38288       32.80417
H         -2.77615       -8.05857       29.94869
H         -4.49509       -8.79511       31.50016
H         -5.08079       -7.46655       30.44287
N         -1.72407       -5.21557       30.99008
C         -1.37316       -3.86413       30.55786
C         -2.37457       -2.76466       30.88099
O         -2.15590       -1.65392       30.41755
H         -1.12453       -5.65679       31.67611
H         -1.20729       -3.88933       29.45890
H         -0.41104       -3.56721       31.02994
N         -3.49353       -2.97343       31.63020
C         -4.53883       -1.95609       31.77743
C         -4.18154       -0.71875       32.62897
O         -5.00297        0.18593       32.68362
C         -5.84383       -2.60113       32.29334
C         -5.79359       -3.09711       33.71274
N         -6.93640       -3.46504       34.32590
O         -4.74101       -3.14365       34.32592
H         -3.66098       -3.91524       32.00519
H         -4.77482       -1.59310       30.75339
H         -6.14431       -3.44376       31.63200
H         -6.63952       -1.82918       32.23937
H         -7.83730       -3.43986       33.82777
H         -6.92197       -3.72980       35.31646
N         -3.02497       -0.61264       33.34277
C         -2.64970        0.55135       34.14306
C         -2.78279        0.35170       35.64788
O         -2.36185        1.23911       36.37626
H         -2.36013       -1.37989       33.30563
H         -3.27178        1.43612       33.88890
H         -1.59902        0.81293       33.89215
N         -3.44185       -0.71519       36.18698
C         -3.73868       -0.85230       37.61565
C         -3.34087       -2.21468       38.15699
O         -3.04286       -3.10106       37.37230
C         -5.27290       -0.66133       37.82799
C         -5.69254        0.76849       37.49109
O         -6.03662       -1.52931       37.02010
H         -3.84273       -1.40831       35.55304
H         -3.18784       -0.09064       38.20817
H         -5.53587       -0.82995       38.89559
H         -5.66274       -2.44430       37.08357
H         -5.12908        1.49256       38.11574
H         -5.50981        0.98843       36.41784
H         -6.77776        0.89556       37.69189
N         -3.43309       -2.47515       39.49961
C         -3.39573       -3.83122       40.03252
C         -4.82935       -4.29680       40.12215
O         -5.63563       -3.67762       40.80356
C         -2.68314       -3.96198       41.41349
C         -1.21636       -3.48513       41.31613
C         -2.75826       -5.43214       41.89152
C         -0.41306       -3.69363       42.60579
H         -3.74456       -1.71895       40.12762
H         -2.84388       -4.49576       39.33055
H         -3.21010       -3.33688       42.16940
H         -1.22232       -2.39930       41.08197
H         -0.69259       -4.02165       40.49587
H         -2.30898       -5.57395       42.89265
H         -3.80849       -5.73809       42.02012
H         -2.26630       -6.11432       41.16526
H          0.59781       -3.25339       42.48965
H         -0.92134       -3.21808       43.47099
H         -0.26768       -4.77509       42.81359
N         -5.20538       -5.40184       39.43472
C         -6.54787       -5.95735       39.46305
C         -6.65740       -6.85149       40.69408
O         -5.64389       -7.06063       41.33035
C         -6.76109       -6.76557       38.15961
C         -6.44241       -5.98259       36.89023
O         -7.26827       -5.94556       35.99238
O         -5.23863       -5.34341       36.75948
H         -4.47906       -5.91908       38.92295
H         -7.28972       -5.12928       39.51796
H         -7.79739       -7.16956       38.12659
H         -6.05935       -7.62575       38.16953
N         -7.82785       -7.39074       41.13337
C         -7.87567       -8.26526       42.31377
C         -7.18843       -9.61709       42.06334
O         -6.32770       -9.95681       42.86273
C         -9.30497       -8.39838       42.86302
C         -9.36304       -9.14076       44.18840
C        -10.18580      -10.27097       44.31894
C         -8.62366       -8.70613       45.31187
C        -10.27115      -10.95131       45.53822
C         -8.70505       -9.39719       46.52643
C         -9.53040      -10.51715       46.63981
H         -8.70202       -7.12980       40.65299
H         -7.31977       -7.74481       43.12527
H         -9.95737       -8.87700       42.10479
H         -9.69208       -7.37199       43.04681
H        -10.77118      -10.62024       43.47900
H         -7.98251       -7.83592       45.26051
H        -10.91562      -11.81533       45.62946
H         -8.13218       -9.06225       47.38305
H         -9.59888      -11.04665       47.58196
N         -7.42823      -10.41979       40.97019
C         -6.66637      -11.63844       40.66575
C         -5.16854      -11.41985       40.41223
O         -4.47047      -12.40389       40.21257
C         -7.38574      -12.23068       39.44647
C         -7.97715      -11.00381       38.78358
C         -8.45939      -10.19539       39.97856
H         -6.73130      -12.36102       41.50847
H         -6.76781      -12.87833       38.78613
H         -8.24770      -12.83009       39.81427
H         -7.14892      -10.43709       38.30120
H         -8.76510      -11.20866       38.02704
H         -8.58794       -9.15174       39.65245
H         -9.41580      -10.59766       40.38375
N         -4.59363      -10.19061       40.49399
C         -3.15593       -9.93942       40.47649
C         -2.67587       -9.58360       41.87785
O         -1.58337       -9.99269       42.24427
C         -2.85596       -8.79931       39.50501
C         -3.17012       -9.21492       38.06356
C         -3.02566       -8.06678       37.13114
O         -3.32532       -8.20566       35.95797
O         -2.59964       -6.87387       37.58343
H         -5.19560       -9.37642       40.62974
H         -2.57888      -10.83487       40.15360
H         -1.78649       -8.49973       39.57168
H         -3.47603       -7.92101       39.79209
H         -4.21791       -9.57058       37.98952
H         -2.48370      -10.02961       37.74305
N         -3.46027       -8.88284       42.74225
C         -3.08517       -8.59055       44.10370
H         -2.18827       -7.94052       44.12050
H         -3.92327       -8.06156       44.61062
H         -2.89129       -9.53659       44.65083
H         -4.38225       -8.56767       42.45338
Ca        -3.26198       -5.47500       35.48203
O         -1.38066       -2.99214       34.59767
H         -0.61275       -2.43592       34.87126
H         -1.20818       -3.18907       33.63997
O         -0.84383       -4.48862       37.15737
H         -0.74633       -5.22699       37.80638
H         -0.09081       -3.87953       37.35761

Ca 1.0



