%chk=holoCaM.loop2.water3.frame471.chk
%nprocshared=20
%mem=10GB
%nosave
#b3lyp/svp scf=(tight,noincore,xqc) Test 
#IOP(5/87=12) Density=Current Pop=(MK,readradii) iop(6/33=2) iop(6/42=6)

holoCaM.loop2.water3.frame471 

   -2  1 
C          4.25783       66.61066       59.13041
C          3.64423       67.97590       59.20611
O          4.11086       68.80612       59.97340
H          5.11676       66.52157       59.82836
H          3.49591       65.84736       59.39157
H          4.61862       66.42469       58.09597
N          2.59454       68.28454       58.39846
C          1.98300       69.60487       58.36630
C          1.24866       69.89718       59.67914
O          0.23117       69.27591       59.95241
C          0.99860       69.66694       57.18064
C          0.41174       71.01666       56.92466
O         -0.54187       71.10756       56.17751
O          0.95123       72.12965       57.44690
H          2.26331       67.56063       57.74085
H          2.79680       70.34473       58.18531
H          0.17370       68.94912       57.37948
H          1.50022       69.35183       56.23907
N          1.73294       70.82572       60.54844
C          1.09351       71.20022       61.80759
C         -0.10060       72.13154       61.61726
O         -0.71827       72.48595       62.61224
C          2.11354       71.94542       62.68639
H          2.63797       71.23827       60.33005
H          0.79097       70.27697       62.34775
H          3.00616       71.30926       62.86261
H          2.44197       72.88562       62.18842
H          1.67262       72.20493       63.67269
N         -0.43540       72.63269       60.39400
C         -1.43213       73.67705       60.18827
C         -2.56827       73.23298       59.28039
O         -3.47452       74.02933       59.07101
C         -0.73211       74.89601       59.54573
C          0.43515       75.37397       60.36412
O          1.56152       75.35544       59.89317
O          0.24692       75.81967       61.61997
H          0.09081       72.33043       59.57396
H         -1.87876       73.98717       61.15813
H         -1.44909       75.73587       59.42071
H         -0.36340       74.60626       58.53679
N         -2.59189       72.00664       58.67529
C         -3.64723       71.60550       57.75652
C         -3.69985       72.42445       56.47032
O         -4.61933       72.19809       55.69643
H         -1.85362       71.31684       58.86983
H         -4.62280       71.69511       58.28553
H         -3.51062       70.53903       57.47789
N         -2.79943       73.41468       56.18454
C         -2.97758       74.33663       55.06399
C         -2.63759       73.74360       53.70257
O         -3.17712       74.21647       52.71268
C         -2.22426       75.65844       55.30230
C         -0.72406       75.54307       55.18896
N         -0.05371       76.29674       54.28957
O         -0.10477       74.78408       55.91830
H         -2.04437       73.60790       56.85127
H         -4.05335       74.62487       55.06465
H         -2.48334       76.04094       56.31439
H         -2.58861       76.40394       54.56365
H         -0.55009       76.94728       53.66357
H          0.96993       76.24054       54.23132
N         -1.71910       72.74537       53.57220
C         -1.38450       72.10374       52.31142
C          0.08233       72.19904       51.93652
O          0.43721       71.56030       50.95489
H         -1.25007       72.39564       54.40959
H         -1.98247       72.50974       51.46745
H         -1.63844       71.02654       52.41286
N          0.99034       72.96994       52.61427
C          2.40260       73.04163       52.22212
C          3.32453       72.68482       53.37947
O          2.86511       72.52236       54.50218
C          2.75437       74.44770       51.67335
C          1.87445       74.82861       50.47846
O          2.61300       75.40625       52.68493
H          0.67544       73.54807       53.40703
H          2.60960       72.30972       51.41104
H          3.81486       74.42988       51.33052
H          3.11106       76.21457       52.39338
H          0.80687       74.88795       50.77916
H          2.18156       75.82249       50.08868
H          1.98539       74.08140       49.66502
N          4.66031       72.53198       53.14907
C          5.65447       72.24235       54.17729
C          6.76166       73.29572       54.13121
O          7.35806       73.51023       53.08523
C          6.19356       70.78164       54.06169
C          6.69432       70.41973       52.63872
C          5.10017       69.80081       54.53975
C          7.35971       69.04307       52.55666
H          4.99664       72.61510       52.17744
H          5.19670       72.30198       55.18412
H          7.04133       70.68543       54.77672
H          7.45137       71.15916       52.31200
H          5.84644       70.44271       51.92013
H          4.21244       69.83600       53.87399
H          5.47558       68.75985       54.58886
H          4.77840       70.05841       55.57286
H          6.65182       68.22621       52.80191
H          7.71549       68.86889       51.51945
H          8.23061       68.99608       53.24418
N          7.09547       73.98136       55.26301
C          8.15975       74.97589       55.36110
C          9.45154       74.25659       55.75440
O          9.41844       73.04490       55.87595
C          7.70628       76.03594       56.40348
C          8.42971       77.35783       56.42317
O          8.09888       78.26459       57.36196
O          9.23400       77.66518       55.55962
H          6.64447       73.71078       56.14088
H          8.29242       75.46906       54.37330
H          7.73297       75.57143       57.41317
H          6.65350       76.30956       56.19680
N         10.63360       74.90319       55.94240
C         11.88707       74.21280       56.23451
C         11.81532       73.36676       57.50904
O         12.13774       72.19192       57.40418
C         13.05894       75.22143       56.22100
C         14.42486       74.59051       56.35130
C         14.85989       73.61674       55.43279
C         15.29733       75.00439       57.37275
C         16.14076       73.06770       55.53923
C         16.58065       74.45819       57.46972
C         17.00184       73.49050       56.55435
H         10.67072       75.91883       55.83047
H         12.07835       73.51589       55.38883
H         12.92009       75.99448       56.99799
H         13.03906       75.74787       55.24203
H         14.21587       73.28436       54.62940
H         14.99200       75.76056       58.08533
H         16.46846       72.31984       54.82865
H         17.25127       74.79052       58.25133
H         17.99688       73.07162       56.62861
N         11.37588       73.83180       58.72545
C         11.23842       72.99015       59.91344
C         10.50496       71.68983       59.64201
O         10.95850       70.63255       60.05722
C         10.38397       73.84861       60.86458
C         10.83227       75.24223       60.51322
C         10.89425       75.17427       58.98948
H         12.24532       72.80448       60.34946
H          9.30793       73.80057       60.57758
H         10.46134       73.56846       61.93723
H         10.19676       76.06113       60.91378
H         11.86735       75.36319       60.90508
H          9.88802       75.28470       58.53167
H         11.56731       75.97788       58.64722
N          9.33324       71.72606       58.95458
C          8.46516       70.57770       58.73328
C          9.17799       69.53737       57.88239
O          9.34578       68.41343       58.33446
C          7.10389       71.04565       58.13863
C          6.45418       72.10127       59.07531
C          5.09525       72.58611       58.67682
O          4.86853       73.14196       57.47993
O          4.20517       72.59647       59.50063
H          9.04211       72.64338       58.59269
H          8.22402       70.12181       59.72060
H          6.43146       70.16483       58.04461
H          7.24976       71.48687       57.12958
H          7.07049       73.01710       59.11851
H          6.39352       71.68655       60.10560
N          9.67742       69.86116       56.65977
C         10.44403       68.94068       55.84927
H         11.34760       68.60884       56.40497
H          9.82555       68.06260       55.57377
H         10.77944       69.45025       54.91914
H          9.54086       70.80664       56.30020
Ca         2.87458       74.11191       57.06103
O          1.62010       76.91875       57.18819
H          0.66311       77.10103       57.36376
H          2.10502       77.48952       57.83495
O          4.40863       76.07382       58.88362
H          4.88978       76.72342       58.31227
H          5.12443       75.56129       59.33616
O          4.31178       76.07494       55.42270
H          4.09213       75.30310       54.84400
H          3.61619       76.74984       55.22481

Ca 1.0



