%chk=holoCaM-CaMKII.loop2.water2.frame116.chk
%nprocshared=20
%mem=10GB
%nosave
#b3lyp/svp scf=(tight,noincore,xqc) Test 
#IOP(5/87=12) Density=Current Pop=(MK,readradii) iop(6/33=2) iop(6/42=6)

holoCaM-CaMKII.loop2.water2.frame116 

   -2  1 
C         35.14225       60.88870       65.23275
C         35.07369       61.49119       63.86013
O         35.69687       60.97774       62.94341
H         34.11866       60.59088       65.55075
H         35.78503       59.98303       65.23907
H         35.54212       61.62994       65.95392
N         34.27481       62.56811       63.63961
C         34.00054       63.08658       62.30670
C         35.08460       64.05261       61.84183
O         35.31744       65.04135       62.52390
C         32.63424       63.80735       62.32800
C         32.08583       64.09433       60.96184
O         32.63865       63.66868       59.96190
O         30.92736       64.76822       60.84389
H         33.72422       62.92496       64.43702
H         33.89457       62.22124       61.61408
H         32.72062       64.75050       62.90992
H         31.88158       63.16241       62.82930
N         35.74812       63.85695       60.66406
C         36.73300       64.79731       60.12430
C         36.31256       65.39482       58.77332
O         37.04549       66.23336       58.26709
C         38.07942       64.07708       59.98116
H         35.53491       63.01033       60.11991
H         36.87536       65.65033       60.82245
H         37.99255       63.22737       59.26922
H         38.86246       64.77315       59.61048
H         38.40654       63.68130       60.96633
N         35.18256       64.99411       58.11495
C         34.79444       65.45988       56.77544
C         33.33484       65.92198       56.66897
O         32.93998       66.32524       55.58341
C         35.07417       64.32970       55.75737
C         34.34259       63.04135       56.03617
O         34.61707       62.04829       55.38534
O         33.44473       62.95924       57.03858
H         34.62087       64.25678       58.54459
H         35.43181       66.31936       56.47215
H         36.16388       64.10999       55.80787
H         34.84753       64.66689       54.72280
N         32.47365       65.89511       57.72711
C         31.08154       66.33013       57.66013
C         30.14188       65.48373       56.79906
O         28.97788       65.85042       56.72229
H         32.82654       65.61843       58.64758
H         31.05811       67.37955       57.29569
H         30.66293       66.32620       58.68913
N         30.54242       64.37464       56.10918
C         29.66649       63.63546       55.19100
C         28.55438       62.80039       55.85338
O         27.82632       62.14228       55.12207
C         30.50634       62.76020       54.22691
C         31.25378       61.61036       54.84649
N         31.94280       60.76414       54.05041
O         31.24065       61.42802       56.05180
H         31.52905       64.10504       56.15133
H         29.17636       64.37907       54.52404
H         31.24237       63.40698       53.70073
H         29.82319       62.33769       53.45882
H         31.96644       60.90050       53.02978
H         32.44216       59.96264       54.45121
N         28.32921       62.78883       57.19957
C         27.24145       62.03997       57.82790
C         27.47908       60.54045       57.97696
O         26.61887       59.88561       58.54816
H         28.88653       63.40156       57.80555
H         26.28962       62.23385       57.28414
H         27.11172       62.42586       58.86138
N         28.60617       59.92658       57.51739
C         28.90097       58.50339       57.67956
C         30.27080       58.29669       58.30746
O         31.24738       58.83234       57.80241
C         28.88557       57.78651       56.30746
C         27.46694       57.65841       55.75682
O         29.68206       58.46407       55.36737
H         29.29397       60.48666       57.00877
H         28.14279       57.99500       58.31666
H         29.24828       56.73756       56.43792
H         30.61786       58.16430       55.49940
H         26.83350       57.08766       56.47095
H         27.01489       58.65642       55.58497
H         27.49107       57.09895       54.79741
N         30.43130       57.43162       59.35148
C         31.75119       57.00948       59.82121
C         32.47686       56.33394       58.66135
O         31.95968       55.37596       58.10478
C         31.63847       56.04751       61.05191
C         31.06247       56.82184       62.26935
C         33.01332       55.43494       61.40937
C         30.78365       55.94766       63.49499
H         29.59360       56.98942       59.75977
H         32.33278       57.89699       60.15262
H         30.95562       55.20940       60.78686
H         30.09902       57.29518       61.98960
H         31.76743       57.63029       62.56257
H         33.74555       56.22821       61.66931
H         32.93845       54.72100       62.25257
H         33.41139       54.84102       60.56269
H         30.35044       56.57712       64.30087
H         30.05674       55.14854       63.23913
H         31.70877       55.49128       63.89973
N         33.71102       56.77254       58.28610
C         34.52239       56.14144       57.24914
C         35.53528       55.23208       57.90238
O         35.54849       55.13207       59.11456
C         35.24366       57.21893       56.42183
C         34.27376       58.12714       55.74499
O         33.48854       57.68842       54.92002
O         34.27544       59.43638       56.04355
H         34.14622       57.52322       58.83343
H         33.89246       55.50967       56.58537
H         35.88297       56.75894       55.63975
H         35.89926       57.81784       57.09434
N         36.39949       54.49458       57.14966
C         37.32756       53.56193       57.76859
C         38.33631       54.24973       58.68650
O         38.41491       53.82277       59.83444
C         38.06317       52.69518       56.72738
C         38.81959       51.60302       57.44944
C         40.22287       51.59739       57.48017
C         38.11233       50.59812       58.13703
C         40.90451       50.60965       58.19968
C         38.79675       49.61154       58.84807
C         40.19229       49.61906       58.88323
H         36.35727       54.55693       56.12330
H         36.70955       52.86290       58.37451
H         38.74279       53.32769       56.12512
H         37.34311       52.22116       56.02582
H         40.78666       52.36742       56.96890
H         37.02914       50.58079       58.12704
H         41.98560       50.61614       58.23442
H         38.24291       48.84625       59.37693
H         40.72032       48.85837       59.44282
N         39.15978       55.28291       58.30844
C         40.17654       55.84382       59.18783
C         39.57533       56.55379       60.38836
O         40.28777       56.78638       61.35222
C         40.96897       56.78718       58.27631
C         39.90138       57.26046       57.31063
C         39.14002       55.96608       57.02580
H         40.85071       55.04158       59.56310
H         41.54718       57.58236       58.79409
H         41.67768       56.17499       57.67358
H         39.22889       57.95222       57.86795
H         40.26711       57.78666       56.40318
H         38.12613       56.24521       56.68110
H         39.66735       55.34575       56.27285
N         38.26990       56.93187       60.39358
C         37.61092       57.52894       61.54626
C         37.40436       56.45028       62.58708
O         37.86400       56.60712       63.71017
C         36.30290       58.20960       61.08195
C         36.69538       59.37141       60.14212
C         35.58497       60.10274       59.47106
O         35.88174       60.98576       58.68195
O         34.28557       59.81804       59.66109
H         37.71218       56.79111       59.54008
H         38.24251       58.33794       61.98015
H         35.73719       58.60660       61.95040
H         35.66174       57.47232       60.55790
H         37.32413       58.98800       59.31323
H         37.29587       60.11242       60.71422
N         36.78148       55.28740       62.25707
C         36.65219       54.17958       63.17499
H         36.04540       54.47847       64.05335
H         36.15665       53.32562       62.66404
H         37.66010       53.84728       63.50578
H         36.42468       55.16186       61.30413
Ca        33.12053       61.08688       58.22926
O         30.32798       61.74449       59.31945
H         29.73284       61.12514       59.81015
H         30.04198       62.64074       59.62199
O         31.86173       60.43213       61.36761
H         32.55152       59.86204       61.78912
H         31.35936       60.81885       62.12744

Ca 1.0



