%chk=holoCaM-CaMKII.loop2.water2.frame153.chk
%nprocshared=20
%mem=10GB
%nosave
#b3lyp/svp scf=(tight,noincore,xqc) Test 
#IOP(5/87=12) Density=Current Pop=(MK,readradii) iop(6/33=2) iop(6/42=6)

holoCaM-CaMKII.loop2.water2.frame153 

   -2  1 
C          3.12703       92.13771       33.94432
C          2.48268       93.36045       33.35143
O          1.30438       93.31582       33.03346
H          4.19316       92.32208       34.19869
H          2.59569       91.85341       34.87742
H          3.07865       91.29516       33.22460
N          3.20162       94.50422       33.19282
C          2.63779       95.75578       32.69856
C          2.13951       95.64664       31.26542
O          2.92244       95.30078       30.39130
C          3.70465       96.86302       32.78650
C          3.15684       98.17810       32.32952
O          3.69106       98.77834       31.41113
O          2.05482       98.68293       32.91402
H          4.19209       94.49454       33.48383
H          1.79983       96.05006       33.36680
H          4.59290       96.59111       32.17373
H          4.03401       96.96998       33.83981
N          0.85300       95.99362       30.95351
C          0.32814       95.99958       29.59189
C         -0.17014       97.37424       29.13610
O         -0.51442       97.47672       27.96633
C         -0.81758       94.98801       29.49350
H          0.21810       96.26909       31.71447
H          1.12295       95.69058       28.87876
H         -1.64753       95.27860       30.17437
H         -1.20984       94.93889       28.45492
H         -0.45923       93.97682       29.77963
N         -0.28224       98.45557       29.97231
C         -0.82622       99.74815       29.53185
C          0.10517      100.93449       29.78088
O         -0.22050      102.02511       29.33158
C         -2.19690       99.98535       30.19714
C         -2.13491       99.96970       31.69931
O         -1.44735      100.77772       32.29933
O         -2.84778       99.06011       32.38946
H         -0.04095       98.35032       30.96679
H         -1.00191       99.73197       28.43444
H         -2.89007       99.18225       29.86604
H         -2.61929      100.95672       29.85941
N          1.26298      100.81625       30.48520
C          2.18725      101.91347       30.71220
C          1.56924      103.07384       31.45853
O          1.59682      104.17659       30.92983
H          1.52492       99.90501       30.86550
H          2.58010      102.26453       29.73251
H          3.05005      101.54408       31.30796
N          1.02939      102.91391       32.70364
C          0.52478      104.04002       33.49556
C          1.31244      104.25139       34.78912
O          1.07295      105.25561       35.44561
C         -0.99739      103.92291       33.75147
C         -1.46433      102.74072       34.56848
N         -2.77825      102.61648       34.86571
O         -0.67892      101.89369       34.96043
H          1.00233      101.96392       33.10199
H          0.65948      104.98189       32.92074
H         -1.51858      103.88591       32.77033
H         -1.33029      104.84465       34.27665
H         -3.45956      103.31915       34.54434
H         -3.11883      101.82153       35.42308
N          2.26092      103.36824       35.22180
C          3.08251      103.57229       36.40662
C          2.70294      102.66419       37.56071
O          3.40516      102.68747       38.56125
H          2.42811      102.50279       34.69863
H          3.00255      104.61487       36.78362
H          4.14290      103.40792       36.11869
N          1.55610      101.92446       37.54316
C          1.04276      101.19395       38.69708
C          0.62149       99.78749       38.31484
O         -0.14613       99.63668       37.37474
C         -0.18644      101.93810       39.28448
C          0.16802      103.34990       39.77510
O         -1.26255      101.98373       38.37705
H          0.95304      101.97147       36.71648
H          1.79789      101.14908       39.51321
H         -0.52930      101.36816       40.17649
H         -1.04066      102.63656       37.66418
H          0.50213      103.99107       38.93169
H         -0.72375      103.81927       40.24066
H          0.97989      103.30191       40.53148
N          1.00730       98.71135       39.05983
C          0.45435       97.37533       38.83245
C         -1.04885       97.44881       39.06738
O         -1.44219       97.86985       40.14777
C          1.07124       96.29660       39.78990
C          2.61851       96.22853       39.66769
C          0.44638       94.91401       39.48317
C          3.26920       95.20494       40.60488
H          1.64311       98.86971       39.85430
H          0.67481       97.06091       37.79010
H          0.82212       96.56709       40.84082
H          3.05599       97.21216       39.92963
H          2.91188       95.98729       38.62676
H          0.69082       94.59660       38.44633
H          0.79471       94.13750       40.19135
H         -0.65410       94.93760       39.59608
H          2.98522       95.40587       41.65974
H          2.98430       94.16764       40.33614
H          4.37354       95.27121       40.51466
N         -1.94318       97.01329       38.13103
C         -3.38071       96.99365       38.38339
C         -3.82917       95.58733       38.75015
O         -3.04054       94.65471       38.67797
C         -4.18419       97.58906       37.20345
C         -3.93708       99.07033       37.04187
O         -4.78798       99.86150       37.41592
O         -2.82621       99.54866       36.44611
H         -1.59196       96.58980       37.26101
H         -3.61644       97.59842       39.28649
H         -5.26147       97.46709       37.44591
H         -4.00319       97.04649       36.24921
N         -5.08208       95.38665       39.25247
C         -5.54367       94.10401       39.77245
C         -5.50827       93.00087       38.72521
O         -5.02800       91.93229       39.06846
C         -6.92962       94.23243       40.44338
C         -7.40618       92.91348       41.01349
C         -8.61294       92.34991       40.56528
C         -6.65143       92.22906       41.98605
C         -9.05279       91.12460       41.07409
C         -7.09254       91.00057       42.48669
C         -8.29198       90.44876       42.03109
H         -5.71408       96.19859       39.32877
H         -4.84567       93.80807       40.58749
H         -7.67163       94.62239       39.72090
H         -6.85959       94.97264       41.27034
H         -9.21326       92.85668       39.82018
H         -5.71890       92.63709       42.35365
H         -9.98301       90.69759       40.72317
H         -6.50302       90.47526       43.22725
H         -8.63203       89.49770       42.41969
N         -5.96904       93.14421       37.44449
C         -5.83300       92.11337       36.42251
C         -4.40448       91.59620       36.28558
O         -4.20199       90.39027       36.29611
C         -6.25990       92.83048       35.13190
C         -7.28924       93.80754       35.64656
C         -6.61170       94.32684       36.90956
H         -6.53743       91.28378       36.65797
H         -5.42398       93.45290       34.73912
H         -6.60000       92.15220       34.32075
H         -7.59982       94.59831       34.93145
H         -8.18821       93.22046       35.94630
H         -5.83400       95.08612       36.67953
H         -7.39574       94.75030       37.56409
N         -3.36416       92.47116       36.15765
C         -1.97084       92.06385       35.94647
C         -1.38858       91.28441       37.11927
O         -0.34036       90.67646       36.94995
C         -1.07373       93.30112       35.74969
C         -1.45993       94.17447       34.54269
C         -0.75745       95.49986       34.59124
O         -1.17199       96.48376       33.78427
O          0.03905       95.76244       35.47834
H         -3.59179       93.47518       36.19319
H         -1.93371       91.42638       35.03567
H         -0.00741       93.00420       35.63524
H         -1.16784       93.90824       36.67988
H         -2.53875       94.41982       34.58228
H         -1.26996       93.64945       33.58368
N         -1.96154       91.31030       38.35161
C         -1.40702       90.60725       39.48620
H         -0.38107       90.97670       39.69665
H         -2.03824       90.78562       40.38360
H         -1.38038       89.51671       39.28084
H         -2.79856       91.87440       38.50598
Ca        -1.65136       98.30971       34.98568
O          2.32502      100.03846       35.24187
H          3.09791      100.26166       34.66393
H          2.73061       99.63279       36.04655
O          2.77322       96.96723       36.13423
H          3.74580       96.98622       36.31713
H          2.52127       96.01632       36.24150

Ca 1.0



