%chk=holoCaM-CaMKII.loop1.water2.frame219.chk
%nprocshared=20
%mem=10GB
%nosave
#b3lyp/svp scf=(tight,noincore,xqc) Test 
#IOP(5/87=12) Density=Current Pop=(MK,readradii) iop(6/33=2) iop(6/42=6)

holoCaM-CaMKII.loop1.water2.frame219 

   0  1 
C         18.68542       67.71348       53.45331
C         18.23000       68.00215       54.85388
O         17.09338       68.39575       55.03930
H         19.73818       67.35576       53.43391
H         18.04712       66.91371       53.02270
H         18.61341       68.62753       52.83309
N         19.07025       67.77015       55.89200
C         18.73075       67.88352       57.30842
C         18.74578       69.35538       57.76047
O         19.67510       69.75235       58.44932
C         19.78844       67.03170       58.04681
C         19.66335       66.88902       59.51932
O         18.58239       67.24386       60.21509
O         20.63235       66.48535       60.13250
H         20.00198       67.39515       55.65007
H         17.75327       67.40112       57.51443
H         20.77782       67.50179       57.85881
H         19.81107       66.00114       57.63017
N         17.77100       70.23859       57.38611
C         17.82624       71.66256       57.71363
C         17.69146       71.97039       59.21845
O         17.92487       73.11627       59.57884
C         16.73036       72.46557       56.96697
C         16.60596       72.28140       55.43324
C         17.88068       72.61656       54.63690
C         17.59576       72.85646       53.13484
N         17.22649       71.64666       52.39607
H         17.00157       69.90893       56.80015
H         18.81537       72.03289       57.36341
H         16.91149       73.54684       57.16402
H         15.73991       72.20841       57.40300
H         15.80689       72.99129       55.12553
H         16.25334       71.26228       55.17414
H         18.65584       71.83063       54.77849
H         18.27940       73.57481       55.02906
H         18.50488       73.28802       52.66104
H         16.78605       73.61461       53.04185
H         18.05914       71.02171       52.30181
H         16.44158       71.13511       52.85579
H         16.91965       71.92617       51.43451
N         17.30532       71.03569       60.14443
C         17.19473       71.31523       61.58618
C         18.27272       70.59318       62.40517
O         18.31717       70.79212       63.61120
C         15.73730       71.14888       62.11950
C         15.00845       69.85368       61.88092
O         15.55271       68.85764       61.17943
O         13.86143       69.73233       62.27807
H         17.09875       70.08362       59.81949
H         17.42099       72.38605       61.78250
H         15.11526       71.93463       61.63833
H         15.73163       71.34822       63.21441
N         19.25528       69.85812       61.80584
C         20.46011       69.38545       62.47947
C         20.18894       68.39911       63.58836
O         20.58288       68.64149       64.71944
H         19.21535       69.70182       60.79529
H         21.01971       70.26153       62.87349
H         21.11067       68.88716       61.72673
N         19.50953       67.25753       63.31728
C         19.13855       66.24181       64.29069
C         19.56594       64.82800       63.86105
O         19.23352       63.88775       64.56877
C         17.61404       66.34810       64.53822
C         16.72934       66.13536       63.34016
O         17.19049       65.83063       62.25752
O         15.40005       66.29683       63.46409
H         19.18084       67.13451       62.36492
H         19.61970       66.45296       65.27087
H         17.40877       67.37458       64.91311
H         17.31196       65.62815       65.32708
N         20.33603       64.59644       62.75214
C         20.79285       63.26944       62.34412
C         19.73583       62.39995       61.67426
O         20.02796       61.24331       61.40790
H         20.69509       65.39365       62.21936
H         21.22756       62.75461       63.22730
H         21.60474       63.38104       61.59273
N         18.50595       62.88302       61.35015
C         17.45810       62.11735       60.66865
C         16.87062       62.90627       59.50457
O         16.87793       64.12902       59.53720
C         16.33420       61.68292       61.66574
C         16.67272       60.33633       62.29681
O         16.11709       62.59803       62.71596
H         18.30445       63.85877       61.58213
H         17.88359       61.19924       60.20572
H         15.38088       61.51759       61.11569
H         16.30807       63.51279       62.40495
H         16.73818       59.55989       61.50373
H         17.63307       60.38556       62.84888
H         15.86156       60.04085       62.99656
N         16.32842       62.24508       58.43349
C         15.74444       62.92462       57.27854
C         14.27090       62.54856       57.17970
O         13.95036       61.36763       57.17143
C         16.51029       62.60478       55.95522
C         18.04495       62.72650       56.16201
C         16.02283       63.57357       54.85258
C         18.87445       62.49153       54.89530
H         16.33800       61.21278       58.42880
H         15.82929       64.02239       57.41590
H         16.29709       61.55868       55.63968
H         18.35713       61.95501       56.89935
H         18.30307       63.72670       56.57144
H         14.92775       63.48999       54.70376
H         16.26366       64.62313       55.13309
H         16.49180       63.35749       53.87250
H         18.63075       61.50864       54.43941
H         18.70674       63.29800       54.15214
H         19.95419       62.50536       55.15473
N         13.32343       63.52079       57.06964
C         11.88673       63.27540       57.00660
C         11.39236       63.33952       55.57825
O         12.15877       63.60741       54.66509
C         11.11666       64.30522       57.88550
C         11.41276       64.13810       59.37696
O         11.36772       65.62136       57.45406
H         13.64492       64.48440       56.96237
H         11.65681       62.24606       57.36063
H         10.02278       64.14858       57.79498
H         12.19959       65.93915       57.88755
H         12.49652       64.24679       59.56603
H         10.85833       64.90945       59.95381
H         11.07964       63.13668       59.71939
N         10.08739       63.05444       55.32593
C          9.48613       63.04884       53.99859
C          9.57649       64.43888       53.37539
O          9.90767       64.55557       52.20444
C          8.02281       62.53339       54.10840
C          7.39918       62.30777       52.72348
O          8.04151       61.30854       54.80676
H          9.48960       62.80944       56.12998
H         10.03424       62.31914       53.36283
H          7.41542       63.27100       54.68361
H          7.12610       60.92542       54.79667
H          6.36184       61.92326       52.83565
H          7.35861       63.24826       52.13997
H          7.99077       61.54827       52.16807
N          9.31987       65.54031       54.13341
C          9.38448       66.91978       53.65248
C         10.80549       67.29772       53.24463
O         11.00397       67.80321       52.14899
C          8.86126       67.84211       54.77310
C          8.50828       69.26268       54.31243
C          7.90541       70.03190       55.50062
C          7.41230       71.44485       55.16107
N          8.47804       72.29035       54.62505
H          9.05942       65.38392       55.11990
H          8.69009       67.02711       52.79032
H          9.58542       67.86851       55.61857
H          7.91187       67.39857       55.14619
H          7.75414       69.20437       53.49593
H          9.41541       69.77686       53.93094
H          8.66618       70.09714       56.30815
H          7.03058       69.46760       55.89575
H          7.02647       71.89506       56.10350
H          6.56926       71.39988       54.43601
H          8.70982       71.99545       53.64940
H          8.14465       73.28078       54.59971
H          9.32960       72.23382       55.22927
N         11.84762       67.03979       54.08623
C         13.25055       67.34146       53.79209
C         13.71494       66.72193       52.48769
O         14.50501       67.35129       51.79581
C         14.15167       66.89032       54.96048
C         13.89023       67.78092       56.18766
C         14.75603       67.46105       57.35783
O         14.75234       66.35456       57.86667
O         15.49055       68.44062       57.90295
H         11.62620       66.57318       54.97746
H         13.37906       68.44206       53.67938
H         15.21510       66.97842       54.67072
H         13.96324       65.82009       55.18435
H         12.83607       67.70171       56.50898
H         14.08720       68.83920       55.91062
N         13.22655       65.53264       52.04764
C         13.59073       64.99212       50.75664
H         14.68325       64.79979       50.71409
H         13.04485       64.04274       50.57628
H         13.31156       65.71404       49.95780
H         12.55075       65.01315       52.62178
Ca        16.39523       67.17652       60.02086
O         13.02180       67.09195       60.15736
H         13.18421       67.97862       60.55838
H         12.31170       66.69897       60.72205
O         14.24197       64.76224       61.29873
H         14.40495       63.79387       61.19414
H         13.42618       64.80796       61.85718

Ca 1.0



