%chk=holoCaM.loop1.water2.frame27.chk
%nprocshared=20
%mem=10GB
%nosave
#b3lyp/svp scf=(tight,noincore,xqc) Test 
#IOP(5/87=12) Density=Current Pop=(MK,readradii) iop(6/33=2) iop(6/42=6)

holoCaM.loop1.water2.frame27 

   0  1 
C         64.06556       91.13170      -10.07847
C         64.31082       90.52256      -11.42259
O         64.64965       91.24031      -12.35289
H         63.01840       90.93011       -9.77038
H         64.75997       90.68393       -9.33719
H         64.22811       92.22980      -10.10933
N         64.16282       89.18008      -11.59203
C         64.39069       88.51615      -12.86699
C         63.40473       89.03741      -13.91382
O         62.21657       88.76015      -13.83738
C         64.32453       86.99237      -12.66063
C         64.48022       86.20965      -13.91871
O         63.50999       85.35176      -14.26527
O         65.47679       86.31982      -14.61253
H         63.90094       88.61384      -10.76938
H         65.42658       88.75539      -13.18724
H         63.34883       86.72238      -12.20141
H         65.13275       86.69176      -11.95717
N         63.85842       89.89350      -14.87120
C         63.02787       90.58555      -15.85782
C         62.61498       89.69024      -17.01910
O         61.60030       89.96611      -17.64360
C         63.85442       91.77881      -16.39783
C         63.15137       92.64848      -17.45244
C         63.97574       93.90179      -17.81338
C         65.40664       93.63255      -18.32589
N         65.42442       92.84544      -19.55908
H         64.85425       90.15261      -14.82272
H         62.12940       91.01031      -15.35633
H         64.79488       91.38014      -16.83508
H         64.11404       92.42475      -15.52931
H         62.17257       92.99060      -17.05164
H         62.95639       92.05354      -18.36857
H         64.05871       94.53759      -16.90503
H         63.41855       94.48185      -18.58056
H         66.01086       93.12212      -17.54537
H         65.89600       94.61287      -18.51781
H         65.00901       91.89992      -19.40239
H         64.90181       93.34799      -20.31237
H         66.41702       92.71911      -19.86329
N         63.42749       88.68155      -17.43569
C         63.23563       87.91809      -18.67349
C         62.88082       86.44520      -18.44025
O         62.68634       85.73508      -19.41727
C         64.46369       88.09104      -19.61096
C         65.79228       87.65102      -19.04084
O         66.78536       87.65053      -19.74962
O         65.89329       87.28974      -17.74964
H         64.24448       88.48705      -16.85124
H         62.36694       88.32529      -19.23684
H         64.55657       89.16108      -19.89988
H         64.26896       87.51255      -20.54064
N         62.66635       85.94305      -17.19322
C         62.09467       84.62392      -16.94116
C         62.99078       83.43821      -17.24592
O         62.55498       82.53444      -17.94397
H         62.78770       86.56186      -16.38012
H         61.12790       84.53106      -17.48274
H         61.85008       84.55440      -15.86249
N         64.22706       83.33990      -16.68604
C         65.07098       82.14188      -16.72946
C         65.50434       81.71127      -15.32234
O         66.31881       80.80381      -15.21933
C         66.27268       82.34411      -17.67942
C         66.90819       83.68823      -17.56567
O         67.40046       84.14769      -16.40611
O         66.90053       84.42692      -18.53844
H         64.58927       84.15513      -16.17154
H         64.52372       81.26888      -17.14935
H         65.88962       82.26262      -18.72122
H         67.02380       81.53641      -17.54790
N         64.95374       82.24863      -14.19160
C         65.29419       81.79994      -12.84832
C         66.65537       82.25468      -12.35587
O         66.99531       81.89598      -11.23658
H         64.19636       82.93790      -14.26830
H         65.21392       80.69146      -12.80092
H         64.55107       82.21754      -12.13462
N         67.47796       83.05344      -13.09587
C         68.77189       83.54240      -12.62009
C         68.81792       85.06464      -12.61484
O         67.90160       85.71211      -13.10420
C         69.92179       82.95519      -13.47962
C         70.18498       81.47695      -13.16319
O         69.67419       83.13799      -14.85058
H         67.17689       83.34743      -14.03352
H         68.94088       83.23913      -11.56344
H         70.87243       83.47530      -13.23603
H         69.04146       82.43198      -15.15104
H         69.28540       80.85579      -13.35324
H         71.02202       81.10655      -13.79349
H         70.48102       81.37123      -12.09749
N         69.86656       85.69667      -12.01117
C         70.02082       87.14372      -11.90608
C         71.34882       87.54620      -12.54096
O         72.39340       87.08955      -12.09567
C         69.91375       87.57856      -10.40644
C         68.45823       87.34361       -9.90657
C         70.32009       89.05300      -10.21293
C         68.21807       87.70286       -8.43664
H         70.59312       85.11493      -11.56430
H         69.20709       87.66816      -12.44894
H         70.61870       86.96432       -9.80254
H         68.19830       86.27106      -10.03019
H         67.75153       87.94255      -10.52421
H         71.36514       89.21922      -10.54183
H         69.64553       89.72555      -10.77763
H         70.30434       89.33560       -9.14148
H         67.16484       87.47101       -8.16992
H         68.89104       87.11692       -7.77713
H         68.36412       88.78655       -8.25062
N         71.36873       88.44319      -13.56965
C         72.58763       88.97826      -14.17769
C         73.03370       90.24515      -13.46184
O         72.40388       90.64930      -12.49648
C         72.37000       89.25800      -15.69264
C         72.11457       87.97409      -16.48060
O         71.35201       90.21155      -15.89820
H         70.46998       88.83231      -13.87910
H         73.41848       88.24443      -14.07779
H         73.29545       89.67272      -16.13826
H         70.47680       89.74531      -15.93729
H         72.01688       88.21273      -17.56071
H         72.96722       87.27251      -16.35649
H         71.18545       87.49446      -16.12001
N         74.13685       90.92178      -13.89422
C         74.65725       92.13807      -13.27412
C         73.60087       93.23004      -13.24399
O         73.34920       93.78059      -12.18252
C         75.91311       92.63456      -14.04550
C         76.57580       93.84021      -13.36576
O         76.85818       91.60255      -14.18896
H         74.64334       90.54751      -14.70902
H         74.96673       91.89927      -12.23149
H         75.60303       92.94183      -15.06883
H         77.09901       91.28291      -13.28095
H         77.45310       94.16950      -13.96098
H         75.86972       94.69268      -13.28587
H         76.92021       93.56244      -12.34644
N         72.94363       93.58938      -14.38154
C         71.89731       94.60878      -14.42077
C         70.74462       94.23125      -13.49952
O         70.37029       95.04421      -12.66532
C         71.39254       94.81747      -15.87065
C         72.48853       95.42612      -16.77255
C         72.00343       95.60553      -18.22073
C         73.08903       96.17340      -19.15768
N         73.45487       97.55369      -18.83060
H         73.18552       93.09272      -15.25227
H         72.30945       95.58479      -14.07765
H         70.53495       95.52680      -15.85903
H         71.03712       93.84950      -16.28846
H         73.38180       94.76735      -16.78661
H         72.78120       96.40888      -16.34703
H         71.10762       96.26321      -18.25246
H         71.71434       94.60549      -18.61127
H         72.69388       96.15366      -20.19767
H         73.99321       95.52541      -19.12769
H         72.61142       98.17013      -18.88132
H         73.88689       97.61484      -17.88228
H         74.15635       97.89198      -19.52892
N         70.14429       93.00887      -13.58151
C         69.00553       92.61837      -12.74180
C         69.33233       92.58442      -11.24868
O         68.40045       92.49419      -10.46101
C         68.48311       91.22354      -13.15126
C         67.94739       91.19071      -14.59353
C         67.57282       89.80607      -15.04864
O         67.74173       88.73480      -14.25060
O         67.12516       89.64707      -16.17220
H         70.50770       92.34611      -14.28200
H         68.19719       93.36756      -12.89482
H         67.66152       90.90274      -12.47175
H         69.32134       90.50939      -13.03643
H         68.71008       91.56573      -15.30378
H         67.05509       91.85025      -14.65505
N         70.61300       92.61204      -10.78373
C         70.96580       92.57325       -9.37838
H         71.58194       93.46311       -9.13146
H         70.07621       92.56643       -8.71501
H         71.56515       91.66111       -9.17402
H         71.38893       92.63405      -11.44817
Ca        67.59364       86.35219      -16.63878
O         69.35651       88.18045      -18.09579
H         69.91788       87.84929      -18.84083
H         68.82521       88.91643      -18.48916
O         70.56231       85.15534      -16.61863
H         69.74198       84.66439      -16.85955
H         70.87529       85.52127      -17.48196

Ca 1.0



