%chk=holoCaM-CaMKII.loop1.water2.frame5.chk
%nprocshared=20
%mem=10GB
%nosave
#b3lyp/svp scf=(tight,noincore,xqc) Test 
#IOP(5/87=12) Density=Current Pop=(MK,readradii) iop(6/33=2) iop(6/42=6)

holoCaM-CaMKII.loop1.water2.frame5 

   0  1 
C         74.02001       69.78816       28.69496
C         74.43433       70.50829       27.44942
O         75.12348       69.93303       26.62145
H         72.91237       69.74851       28.75185
H         74.42471       68.75429       28.70680
H         74.41189       70.33495       29.57926
N         74.04763       71.79690       27.25855
C         74.44716       72.58952       26.10365
C         75.96476       72.72588       26.07503
O         76.55043       73.15400       27.05970
C         73.75260       73.96315       26.16570
C         74.09767       74.83971       25.00152
O         74.66869       76.03422       25.22765
O         73.85153       74.48949       23.85821
H         73.45016       72.23260       27.97930
H         74.09019       72.08555       25.17630
H         74.03522       74.48434       27.10583
H         72.65072       73.81114       26.16866
N         76.65501       72.38352       24.95246
C         78.10657       72.42884       24.82453
C         78.49059       73.59023       23.92835
O         79.19520       74.47877       24.38754
C         78.62135       71.08289       24.23906
C         78.47941       69.88408       25.19571
C         79.54635       69.91643       26.30570
C         79.45784       68.73234       27.28212
N         78.26209       68.80118       28.12325
H         76.11434       72.10454       24.12474
H         78.58907       72.61727       25.80680
H         79.68832       71.16146       23.93510
H         78.03863       70.85922       23.31892
H         78.64374       68.94909       24.61443
H         77.44890       69.85450       25.59660
H         79.49684       70.85814       26.88758
H         80.54203       69.86900       25.81051
H         80.35254       68.76975       27.94292
H         79.48541       67.76672       26.72925
H         77.39686       68.69176       27.55033
H         78.29529       68.02644       28.82446
H         78.23844       69.71301       28.63593
N         78.08087       73.64541       22.63190
C         78.47768       74.71806       21.71865
C         77.97628       76.11205       22.10913
O         78.54304       77.06881       21.59944
C         78.09826       74.36870       20.26180
C         76.63468       74.05721       20.06618
O         76.23880       73.68767       18.97281
O         75.77987       74.09568       21.10837
H         77.52666       72.85542       22.27217
H         79.58971       74.76883       21.75363
H         78.66403       73.45333       19.97906
H         78.41328       75.18654       19.57844
N         76.94690       76.32531       22.98313
C         76.58363       77.65792       23.47008
C         75.24630       78.19134       22.97712
O         74.86345       79.26177       23.42875
H         76.42424       75.51861       23.35148
H         77.34306       78.41450       23.17992
H         76.58651       77.62438       24.58023
N         74.51453       77.56460       22.01242
C         73.30111       78.14467       21.41979
C         72.05478       78.13465       22.32145
O         71.00782       78.55362       21.84565
C         73.02497       77.52043       20.03019
C         72.91875       76.02804       20.02664
O         73.67451       75.36789       19.33248
O         71.99160       75.40939       20.76885
H         74.90152       76.70431       21.60055
H         73.49749       79.21521       21.18365
H         73.86115       77.80356       19.35274
H         72.09580       77.95329       19.60097
N         72.08337       77.75885       23.63328
C         70.92689       77.87266       24.51775
C         69.92187       76.74088       24.40005
O         68.96164       76.75686       25.15848
H         72.97381       77.49094       24.06420
H         70.43454       78.86130       24.37525
H         71.29089       77.84298       25.56708
N         70.07292       75.71663       23.51410
C         69.18327       74.55767       23.44548
C         69.96285       73.25760       23.62091
O         71.18512       73.26761       23.69202
C         68.38453       74.55423       22.11046
C         67.20822       75.52370       22.15931
O         69.19720       74.90681       21.02649
H         70.86912       75.73798       22.86775
H         68.45277       74.56925       24.28496
H         67.92425       73.55716       21.92593
H         69.83963       74.17027       20.91509
H         66.50559       75.21639       22.96400
H         67.55024       76.56233       22.34237
H         66.65897       75.48455       21.19340
N         69.27242       72.08880       23.74794
C         69.86308       70.77216       23.97276
C         69.39110       69.84049       22.85848
O         68.19195       69.78592       22.61454
C         69.40645       70.23043       25.36674
C         69.80850       71.20758       26.50651
C         70.00150       68.82907       25.62303
C         69.25317       70.80913       27.87908
H         68.24108       72.13607       23.72612
H         70.97576       70.82255       23.98237
H         68.29628       70.14778       25.35968
H         69.39720       72.21563       26.28827
H         70.91597       71.29236       26.56759
H         69.69047       68.12105       24.83313
H         71.11198       68.87271       25.64910
H         69.63562       68.39590       26.57410
H         69.53076       71.57869       28.62971
H         68.14466       70.74152       27.83919
H         69.66661       69.84308       28.23051
N         70.26001       69.02183       22.19352
C         69.82948       68.05822       21.17597
C         69.73990       66.66360       21.78018
O         70.08397       66.48986       22.93809
C         70.79426       68.04937       19.95913
C         70.97312       69.42364       19.32840
O         72.05299       67.57884       20.35743
H         71.24307       69.00782       22.49213
H         68.80958       68.32177       20.81859
H         70.36367       67.36662       19.19074
H         72.48250       67.16968       19.56107
H         69.99838       69.84821       19.01207
H         71.46872       70.08887       20.05961
H         71.63631       69.34310       18.44000
N         69.25571       65.61387       21.05656
C         69.15173       64.25745       21.60515
C         70.51003       63.58725       21.81109
O         70.53712       62.50173       22.37432
C         68.30855       63.34748       20.68263
C         66.85953       63.82831       20.57107
O         68.90029       63.29217       19.40885
H         68.91404       65.80061       20.10200
H         68.63725       64.31949       22.59149
H         68.28490       62.32785       21.13634
H         68.58142       62.45818       18.97653
H         66.38885       63.84753       21.57727
H         66.79989       64.84161       20.12454
H         66.28639       63.12570       19.93052
N         71.66796       64.14931       21.36820
C         72.97894       63.52052       21.49049
C         73.80023       64.25131       22.53590
O         74.41661       63.58829       23.35908
C         73.66365       63.45771       20.11063
C         72.87134       62.54784       19.14989
C         73.53989       62.43527       17.77383
C         72.77002       61.45736       16.87032
N         73.39375       61.35357       15.55117
H         71.63156       65.06088       20.89686
H         72.89231       62.47051       21.85131
H         74.68294       63.02976       20.23410
H         73.76007       64.48053       19.68423
H         71.84043       62.94274       19.01578
H         72.80454       61.53205       19.59925
H         74.58082       62.06442       17.89662
H         73.56976       63.43927       17.29717
H         71.71846       61.80142       16.75075
H         72.75529       60.45054       17.34548
H         72.86103       60.66322       14.97355
H         73.37347       62.28232       15.07087
H         74.38212       61.02400       15.64303
N         73.74444       65.60832       22.65652
C         74.33078       66.33685       23.77864
C         73.76274       65.78279       25.07580
O         74.52744       65.36859       25.93565
C         74.03443       67.85277       23.67195
C         74.67041       68.47375       22.41410
C         74.41521       69.94801       22.31135
O         75.45191       70.79706       22.21136
O         73.27659       70.38252       22.26615
H         73.19012       66.13386       21.97402
H         75.43561       66.20483       23.77899
H         74.45108       68.36407       24.56593
H         72.93612       68.01786       23.66418
H         74.26774       68.00297       21.49869
H         75.76723       68.29965       22.43462
N         72.41665       65.68155       25.24783
C         71.81802       65.07521       26.41573
H         70.71181       65.05729       26.30466
H         72.17201       64.02659       26.52030
H         72.08013       65.65385       27.32454
H         71.79272       66.00744       24.50221
Ca        73.74992       73.12026       21.08505
O         71.26487       72.54148       19.76893
H         70.57869       72.76380       19.09184
H         70.75373       72.17824       20.53704
O         73.88702       71.20229       18.68412
H         74.73966       71.34541       19.16649
H         73.72018       72.05759       18.21350

Ca 1.0



