%chk=holoCaM.loop1.water2.frame163.chk
%nprocshared=20
%mem=10GB
%nosave
#b3lyp/svp scf=(tight,noincore,xqc) Test 
#IOP(5/87=12) Density=Current Pop=(MK,readradii) iop(6/33=2) iop(6/42=6)

holoCaM.loop1.water2.frame163 

   0  1 
C         90.86666       68.15244       79.64005
C         91.56954       66.98112       80.25122
O         91.86612       66.02739       79.54435
H         89.89597       68.31431       80.14959
H         91.50001       69.05884       79.75328
H         90.68990       67.98082       78.55664
N         91.91628       67.00664       81.56799
C         92.72117       65.95410       82.16384
C         91.94311       64.64561       82.29091
O         91.00825       64.56637       83.07501
C         93.26250       66.40084       83.53034
C         94.38410       65.53159       83.99766
O         94.84444       64.52313       83.23566
O         94.97219       65.82241       85.02265
H         91.69004       67.84864       82.12065
H         93.60363       65.83531       81.49306
H         92.44896       66.45069       84.28556
H         93.70140       67.41794       83.42289
N         92.27483       63.58607       81.50812
C         91.58958       62.29729       81.50483
C         91.83191       61.45507       82.75712
O         90.91472       60.75285       83.15790
C         91.97901       61.49666       80.23122
C         93.44475       61.02403       80.19585
C         93.84060       60.48544       78.81753
C         95.32535       60.09012       78.80025
N         95.73986       59.65795       77.46642
H         92.99452       63.74746       80.79869
H         90.49811       62.48759       81.39530
H         91.78605       62.16238       79.35995
H         91.32105       60.60664       80.12462
H         93.60473       60.24211       80.96432
H         94.11508       61.86596       80.42090
H         93.67726       61.28469       78.06167
H         93.20987       59.60933       78.55285
H         95.50085       59.26910       79.53068
H         95.94688       60.96321       79.10196
H         95.60900       60.43785       76.78116
H         96.75315       59.40068       77.49037
H         95.18289       58.82530       77.16710
N         93.06872       61.37122       83.33921
C         93.42207       60.36295       84.35024
C         93.80566       60.92124       85.72228
O         94.11632       60.12700       86.60009
C         94.50761       59.42115       83.77764
C         95.82148       60.06757       83.42197
O         96.70615       59.38581       82.93033
O         96.04285       61.37740       83.63269
H         93.80766       61.99414       82.98676
H         92.54519       59.71020       84.55233
H         94.09858       58.94876       82.85925
H         94.70819       58.60657       84.50655
N         93.71382       62.24428       86.02050
C         93.86681       62.76903       87.37126
C         95.27630       62.75942       87.92102
O         95.48227       62.30995       89.03931
H         93.40824       62.90536       85.29235
H         93.17045       62.24721       88.06505
H         93.56529       63.83836       87.35211
N         96.27093       63.36357       87.22312
C         97.56456       63.75096       87.78431
C         97.71394       65.27888       87.66718
O         98.80630       65.79009       87.86830
C         98.71639       62.93250       87.14533
C         98.64325       62.90625       85.66003
O         98.68845       64.04802       84.97532
O         98.41427       61.86032       85.07454
H         96.06418       63.67228       86.26049
H         97.63249       63.52256       88.87074
H         98.62305       61.88287       87.50105
H         99.70514       63.31496       87.47824
N         96.61637       66.07605       87.45360
C         96.62681       67.53168       87.44032
C         97.25308       68.18002       86.21903
O         97.27168       69.40315       86.19331
H         95.68261       65.64866       87.40126
H         97.12501       67.89765       88.36418
H         95.57275       67.88738       87.47023
N         97.79852       67.47011       85.18811
C         98.49385       68.10462       84.06440
C         97.99965       67.62605       82.70061
O         97.13641       66.76551       82.61555
C        100.02141       67.87471       84.22079
C        100.60936       68.74872       85.33891
O        100.31890       66.51579       84.42924
H         97.79249       66.44273       85.23177
H         98.32038       69.20364       84.06132
H        100.55337       68.19788       83.30341
H        100.14678       66.30344       85.38501
H        101.70369       68.57715       85.41086
H        100.44145       69.82148       85.09901
H        100.14216       68.52455       86.32004
N         98.51878       68.20091       81.57462
C         98.17471       67.86005       80.19662
C         99.44795       67.39732       79.47682
O        100.47331       68.05720       79.58063
C         97.50975       69.09344       79.50083
C         96.17511       69.43770       80.22537
C         97.25276       68.82802       78.00489
C         95.37456       70.57917       79.59027
H         99.20853       68.95856       81.69463
H         97.42741       67.03880       80.15949
H         98.20281       69.96126       79.56326
H         96.39911       69.72270       81.27527
H         95.51551       68.54109       80.24467
H         96.88075       69.73918       77.49505
H         98.18786       68.55561       77.48054
H         96.50060       68.03058       77.87575
H         94.47160       70.78210       80.20415
H         95.98627       71.50236       79.52842
H         95.01516       70.30038       78.57722
N         99.42134       66.29570       78.67192
C        100.54861       65.77004       77.90584
C        100.36283       66.11422       76.43937
O         99.40246       66.78192       76.10041
C        100.63401       64.21560       78.05027
C        100.78265       63.73971       79.49355
O         99.54021       63.58091       77.42880
H         98.52136       65.84488       78.51723
H        101.50271       66.22420       78.25124
H        101.54326       63.85512       77.52767
H         98.76630       63.59573       78.04637
H         99.88604       64.02929       80.07141
H        100.86936       62.63101       79.50993
H        101.68895       64.17866       79.95743
N        101.22718       65.65861       75.49777
C        101.00346       65.82198       74.06274
C         99.68050       65.17289       73.64518
O         98.89774       65.82092       72.96584
C        102.18784       65.23184       73.25858
C        103.46694       66.05594       73.49655
O        102.39108       63.88740       73.61687
H        102.05235       65.12833       75.81340
H        100.94758       66.90546       73.80707
H        101.93890       65.29473       72.17487
H        103.15813       63.55083       73.08492
H        103.77411       66.03687       74.56259
H        104.30082       65.65259       72.88483
H        103.30117       67.11237       73.19354
N         99.35103       63.91320       74.05755
C         98.09882       63.23290       73.70511
C         96.87764       64.05103       74.10500
O         96.04937       64.34534       73.25438
C         97.99483       61.85448       74.41463
C         98.81999       60.71288       73.79703
C        100.33936       60.90637       73.78414
C        101.01739       59.66465       73.18529
N        102.46850       59.82706       73.12747
H        100.01420       63.43230       74.68111
H         98.04957       63.07299       72.60522
H         96.94117       61.50311       74.33433
H         98.21871       61.96152       75.49942
H         98.46910       60.55266       72.75457
H         98.59010       59.79452       74.38269
H        100.70903       61.06713       74.82075
H        100.59712       61.78375       73.15568
H        100.63043       59.49322       72.15566
H        100.77250       58.77143       73.80303
H        102.85491       59.95695       74.09031
H        102.88888       58.96729       72.70563
H        102.71398       60.65035       72.53100
N         96.69451       64.41882       75.39791
C         95.52245       65.13354       75.90569
C         95.33132       66.45805       75.17775
O         94.22263       66.74485       74.74825
C         95.68780       65.35357       77.42573
C         95.67802       64.02360       78.21319
C         96.11338       64.19984       79.64381
O         97.25096       64.53105       79.91264
O         95.28170       63.92589       80.64965
H         97.44586       64.17356       76.05640
H         94.60254       64.52485       75.75712
H         94.87369       65.99895       77.82489
H         96.64379       65.87455       77.56693
H         96.36219       63.27557       77.76600
H         94.64993       63.60376       78.17191
N         96.38008       67.29331       74.96163
C         96.26076       68.55052       74.25657
H         95.60558       69.24240       74.82489
H         97.26431       69.01804       74.15011
H         95.84414       68.38399       73.24032
H         97.30607       67.00851       75.27906
Ca        97.01528       64.15506       83.53241
O         99.82521       63.96752       82.50604
H         99.74944       64.95319       82.54883
H        100.78852       63.78192       82.63213
O         98.20586       61.71676       81.16065
H         98.79812       61.27380       80.50260
H         98.48621       61.34535       82.03456

Ca 1.0



