%chk=holoCaM.loop4.water3.frame116.chk
%nprocshared=20
%mem=10GB
%nosave
#b3lyp/svp scf=(tight,noincore,xqc) Test 
#IOP(5/87=12) Density=Current Pop=(MK,readradii) iop(6/33=2) iop(6/42=6)

holoCaM.loop4.water3.frame116 

   -3  1 
C         71.36205       29.21745       15.18036
C         70.14625       28.63947       14.51712
O         70.19660       27.47708       14.14435
H         72.23054       29.18569       14.49192
H         71.19031       30.26112       15.51398
H         71.59879       28.60443       16.07925
N         68.99564       29.36869       14.39181
C         67.73213       28.77444       13.96967
C         67.04418       29.51128       12.82067
O         66.91271       30.72619       12.86079
C         66.77762       28.77635       15.17375
C         65.54642       27.95680       14.92145
O         65.56461       27.05719       14.09627
O         64.46711       28.11555       15.70754
H         68.98500       30.34427       14.72624
H         67.89639       27.71401       13.68075
H         66.49335       29.82363       15.41243
H         67.27341       28.34591       16.06831
N         66.46369       28.78065       11.82606
C         65.66109       29.30383       10.72409
C         64.22453       28.73684       10.74239
O         63.33794       29.44879       10.29045
C         66.38595       28.95780        9.38388
C         67.79862       29.60396        9.30379
C         65.56128       29.30823        8.12904
C         67.80967       31.13702        9.22259
H         66.59754       27.76961       11.85842
H         65.56469       30.40802       10.79600
H         66.53265       27.85455        9.36037
H         68.31961       29.21486        8.40227
H         68.39922       29.29392       10.18511
H         64.61461       28.72986        8.10455
H         65.31122       30.38792        8.09135
H         66.12906       29.03383        7.21368
H         67.29568       31.49229        8.30578
H         67.33528       31.59962       10.11053
H         68.85967       31.49395        9.17512
N         63.92536       27.45990       11.15006
C         62.60807       26.82832       10.95064
C         61.86186       26.41429       12.22725
O         60.73924       25.94235       12.10930
C         62.77940       25.61290       10.00629
C         63.66057       24.50025       10.53073
O         64.22769       24.56076       11.74987
O         63.86444       23.52097        9.83211
H         64.67708       26.88329       11.53942
H         61.92798       27.54197       10.43810
H         63.21962       25.97681        9.05288
H         61.78135       25.18064        9.77786
N         62.39887       26.55409       13.46680
C         61.72498       26.19129       14.70963
C         61.31606       24.73294       14.75777
O         60.17710       24.44474       15.09559
H         63.33667       26.94550       13.54313
H         60.83698       26.83862       14.87220
H         62.42738       26.37868       15.54987
N         62.21753       23.76032       14.46199
C         61.91728       22.32385       14.48746
C         62.35258       21.63552       15.77668
O         62.00396       20.47505       15.94735
C         62.51372       21.60337       13.25133
C         64.00343       21.77744       13.05364
O         64.73963       22.55284       13.87869
O         64.52661       21.27417       12.07588
H         63.14841       24.08874       14.19098
H         60.81384       22.18622       14.44586
H         62.01968       22.00330       12.34041
H         62.28569       20.51572       13.30962
N         63.11066       22.25936       16.72120
C         63.51722       21.63257       17.97293
C         64.98137       21.21259       17.98173
O         65.45847       20.80863       19.03150
H         63.43573       23.21642       16.55104
H         62.91475       20.72361       18.19005
H         63.31242       22.35440       18.79310
N         65.72758       21.19505       16.83892
C         67.10974       20.71464       16.73768
C         67.98227       21.74656       16.03767
O         67.47113       22.79628       15.68793
C         67.10683       19.43068       15.87727
C         66.43750       18.25457       16.59714
C         66.47580       17.01171       15.74613
N         65.77802       16.94225       14.58833
O         67.13859       16.05214       16.11106
H         65.27552       21.47087       15.96000
H         67.54595       20.49352       17.73592
H         68.14861       19.11758       15.65647
H         66.60158       19.64040       14.90641
H         65.38259       18.48418       16.85716
H         67.00065       18.07032       17.53870
H         65.19716       17.73275       14.27320
H         65.80566       16.08746       14.01259
N         69.30340       21.49863       15.75550
C         70.08178       22.33967       14.84174
C         70.64584       21.46365       13.71586
O         71.45860       20.59152       13.99098
C         71.22813       23.11494       15.54639
C         71.83065       24.13693       14.55923
C         70.74404       23.85449       16.80268
H         69.74937       20.65016       16.13521
H         69.40957       23.10630       14.40705
H         72.02093       22.40631       15.87187
H         71.05243       24.85843       14.22547
H         72.65599       24.70832       15.03145
H         72.23583       23.63200       13.65853
H         70.37583       23.13240       17.56072
H         71.58413       24.42275       17.25772
H         69.93140       24.56566       16.56716
N         70.23656       21.63142       12.42550
C         70.71533       20.82325       11.29369
C         72.13225       21.20910       10.88837
O         72.64225       22.22278       11.34184
C         69.72104       21.00607       10.11798
C         70.01997       20.37996        8.78363
N         70.12408       19.04231        8.63613
O         70.10749       21.09851        7.80142
H         69.51181       22.33974       12.25406
H         70.70570       19.75187       11.59266
H         69.58981       22.09590        9.94898
H         68.76331       20.56181       10.43644
H         70.02275       18.41255        9.44329
H         70.29035       18.64024        7.70124
N         72.84193       20.39877       10.04974
C         74.19289       20.69588        9.58509
C         74.18706       21.86247        8.60752
O         74.93661       22.80666        8.80853
C         74.90143       19.44365        9.01267
C         74.34042       18.82604        7.75324
C         74.87154       19.18350        6.50253
C         73.34809       17.83192        7.81511
C         74.41077       18.56891        5.33514
C         72.88794       17.21848        6.64562
C         73.41695       17.58262        5.40327
O         72.97179       16.97278        4.28627
H         72.41293       19.50890        9.77033
H         74.81708       20.96396       10.46778
H         74.94849       18.65895        9.80023
H         75.96327       19.71403        8.82108
H         75.64864       19.93434        6.43227
H         72.94090       17.51493        8.76643
H         74.83238       18.85540        4.38010
H         72.12787       16.44952        6.70680
H         73.32206       17.18597        3.40949
N         73.32417       21.88085        7.55022
C         73.18810       23.01127        6.62628
C         72.84245       24.27512        7.39583
O         73.49082       25.29376        7.20354
C         72.07081       22.75451        5.58482
C         72.36403       21.55834        4.66620
C         71.22915       21.32161        3.71068
O         70.90032       22.18556        2.91330
O         70.57030       20.14662        3.72784
H         72.69544       21.07319        7.43924
H         74.13953       23.16935        6.07102
H         71.96117       23.66037        4.94668
H         71.10424       22.59448        6.10432
H         72.50115       20.63855        5.26686
H         73.29567       21.74652        4.09056
N         71.84367       24.25088        8.32118
C         71.41932       25.39584        9.12471
C         72.58406       26.04770        9.85010
O         72.63132       27.26887        9.90188
C         70.32349       24.92839       10.10221
C         69.61443       26.05960       10.84955
C         68.41029       25.48371       11.53904
O         68.54222       24.64273       12.57714
O         67.29739       25.70163       11.09368
H         71.36737       23.34901        8.47434
H         70.96850       26.15040        8.44126
H         70.73224       24.18547       10.82228
H         69.54611       24.42858        9.48074
H         69.26886       26.80339       10.09961
H         70.28428       26.57385       11.57208
N         73.60238       25.29725       10.35366
C         74.78812       25.85949       10.96705
H         75.67547       25.59785       10.35066
H         74.73958       26.96525       11.05144
H         74.91738       25.42970       11.98090
H         73.56315       24.27607       10.25931
Ca        66.67901       23.56035       13.28180
O         67.76227       25.61284       15.31771
H         67.82777       25.94248       16.24810
H         68.69134       25.60581       14.98480
O         65.27213       24.68177       15.95594
H         65.34098       24.72236       16.94208
H         64.54359       25.31073       15.73357
O         67.21754       22.05274       11.25510
H         66.42245       22.16667       10.68300
H         67.03132       21.26859       11.83398

Ca 1.0



