%chk=holoCaM.loop3.water3.frame222.chk
%nprocshared=20
%mem=10GB
%nosave
#b3lyp/svp scf=(tight,noincore,xqc) Test 
#IOP(5/87=12) Density=Current Pop=(MK,readradii) iop(6/33=2) iop(6/42=6)

holoCaM.loop3.water3.frame222 

   0  1 
C         31.89455       50.00960       17.44583
C         31.32110       49.04511       18.44009
O         31.29806       47.85586       18.15810
H         32.95169       49.74282       17.23822
H         31.31114       49.95853       16.50287
H         31.86026       51.05225       17.82641
N         30.83225       49.49181       19.63085
C         30.25831       48.61799       20.64201
C         28.80360       49.01021       20.82864
O         28.53397       50.07937       21.35933
C         31.11163       48.75073       21.91861
C         30.68589       47.90973       23.07863
O         29.68565       47.21489       23.03525
O         31.43717       47.92528       24.19082
H         30.86357       50.50346       19.83347
H         30.30276       47.55877       20.30538
H         31.12791       49.81027       22.25382
H         32.15219       48.45584       21.66224
N         27.81344       48.23701       20.29084
C         26.41921       48.67378       20.24667
C         25.70713       48.60887       21.58807
O         24.64498       49.20569       21.69897
C         25.62604       47.90479       19.16639
C         25.40353       46.41407       19.48237
C         24.68668       45.72628       18.31282
C         24.42293       44.24419       18.60449
N         23.74552       43.60593       17.47560
H         28.09073       47.39738       19.76352
H         26.43360       49.73582       19.91219
H         26.17720       48.00213       18.20440
H         24.63164       48.38600       19.03643
H         24.78854       46.31693       20.40309
H         26.37143       45.90700       19.66125
H         25.31555       45.80983       17.39867
H         23.71647       46.23614       18.12505
H         23.78677       44.15404       19.51297
H         25.38653       43.72225       18.79512
H         22.83320       44.08162       17.28637
H         24.34914       43.65094       16.62234
H         23.56165       42.60315       17.70713
N         26.18840       47.86626       22.62671
C         25.51618       47.77195       23.92326
C         26.40040       48.24593       25.07185
O         25.93935       48.22785       26.20457
C         24.99085       46.33495       24.15238
C         26.02893       45.24629       24.22777
O         27.21931       45.48737       24.12118
O         25.62759       43.97686       24.42398
H         27.04854       47.31983       22.48175
H         24.61858       48.42750       23.93770
H         24.29193       46.08443       23.32506
H         24.41160       46.31374       25.10104
N         27.66796       48.70433       24.86354
C         28.52948       49.19275       25.92305
C         28.82289       48.13940       26.96555
O         28.54360       48.38084       28.13116
H         28.04485       48.75230       23.91077
H         28.05688       50.08020       26.39724
H         29.49462       49.52259       25.47959
N         29.41605       46.95932       26.62391
C         29.80831       45.94398       27.59977
C         31.32341       45.73746       27.59965
O         31.79733       44.79636       28.22103
C         29.04426       44.62622       27.34815
C         29.55375       43.81720       26.17915
N         30.03335       42.56651       26.38244
O         29.53633       44.28177       25.05058
H         29.62487       46.78382       25.63157
H         29.51612       46.26206       28.62418
H         27.96077       44.84371       27.22466
H         29.14636       44.00509       28.26473
H         30.05767       42.15256       27.32623
H         30.38019       42.00171       25.59619
N         32.14942       46.61250       26.95582
C         33.59346       46.49045       26.91303
C         34.11163       45.48765       25.89996
O         35.32608       45.42149       25.77150
H         31.75558       47.46722       26.54462
H         33.99282       46.28910       27.93049
H         34.00411       47.47175       26.58666
N         33.29908       44.70180       25.12563
C         33.82840       43.81441       24.08604
C         33.20349       44.10950       22.70033
O         32.71906       45.41453       22.63094
C         33.56332       42.34795       24.45196
C         34.37873       41.93983       25.64786
C         33.85549       42.02859       26.94687
C         35.68974       41.47286       25.46179
C         34.63752       41.65552       28.04519
C         36.46631       41.09451       26.55804
C         35.94289       41.18567       27.85534
O         36.68396       40.82656       28.92261
H         32.27823       44.73297       25.25571
H         34.92792       43.95582       23.98681
H         33.83063       41.67599       23.60681
H         32.48092       42.19604       24.63760
H         32.84930       42.39288       27.10883
H         36.10839       41.39933       24.46516
H         34.22888       41.73188       29.04468
H         37.47383       40.73231       26.39655
H         37.58916       40.49580       28.83072
N         34.20231       43.88013       21.63860
C         33.73490       44.02857       20.23753
C         33.85518       42.69354       19.49773
O         34.90482       42.06476       19.55394
C         34.56396       45.13660       19.51942
C         34.43170       46.48554       20.27846
C         34.09537       45.29445       18.05411
C         35.29895       47.61232       19.71445
H         34.73267       42.99296       21.79993
H         32.67367       44.36464       20.20853
H         35.63377       44.83162       19.52021
H         34.75745       46.34533       21.33028
H         33.36920       46.81458       20.28013
H         34.70766       46.03939       17.50957
H         34.20439       44.34388       17.49367
H         33.02908       45.60623       18.01522
H         34.99764       47.88936       18.68494
H         35.17985       48.51651       20.34855
H         36.36817       47.31233       19.72336
N         32.81842       42.22590       18.75118
C         32.79565       40.93727       18.07112
C         32.72350       41.11693       16.56571
O         32.71490       42.24557       16.09568
C         31.57885       40.14037       18.57977
O         30.38819       40.80703       18.24377
H         31.99660       42.82707       18.64233
H         33.71532       40.35530       18.29970
H         31.67406       40.02967       19.68545
H         31.55449       39.12278       18.13805
H         29.75038       40.66647       18.99075
N         32.67566       40.03746       15.74040
C         32.55141       40.12753       14.28878
C         31.23371       40.77113       13.88405
O         31.24613       41.70062       13.09248
C         32.63854       38.73081       13.66476
H         32.72890       39.09846       16.16868
H         33.40186       40.71719       13.87602
H         31.82034       38.07599       14.03315
H         32.57177       38.80283       12.55776
H         33.61331       38.26445       13.92345
N         30.05555       40.31656       14.40507
C         28.73861       40.84277       14.04082
C         28.67033       42.34686       14.20212
O         28.32587       43.03420       13.24966
C         27.65613       40.18397       14.90769
H         30.10267       39.56207       15.10638
H         28.52702       40.59045       12.97834
H         26.65125       40.56380       14.62450
H         27.66927       39.08300       14.76399
H         27.82676       40.39997       15.98510
N         29.02740       42.92551       15.37709
C         29.05170       44.36847       15.60397
C         29.92174       45.05169       14.55903
O         29.43427       45.94005       13.87406
C         29.56919       44.63993       17.02916
C         28.53612       44.20135       18.09078
C         29.17594       44.17130       19.44045
O         28.88394       45.05551       20.40236
O         30.02997       43.33792       19.67030
H         29.34432       42.29781       16.13291
H         28.02454       44.78979       15.51835
H         29.76895       45.72372       17.18074
H         30.53389       44.09852       17.15269
H         28.13851       43.18231       17.89974
H         27.69057       44.91615       18.05711
N         31.20340       44.65477       14.34590
C         32.03691       45.23087       13.31333
H         33.02392       44.72016       13.29629
H         31.55725       45.09402       12.31995
H         32.19413       46.31208       13.50662
H         31.58896       43.89440       14.91076
Ca        30.62354       45.05264       21.82940
O         26.87378       42.90311       21.43494
H         26.31286       43.71902       21.43786
H         26.50932       42.35198       20.69770
O         30.62352       41.73735       22.53915
H         30.60094       41.10179       23.29798
H         31.43495       41.48550       22.03105
O         27.92597       41.77897       24.09692
H         28.23490       41.05656       24.69880
H         26.93979       41.70411       24.11098

Ca 1.0



