%chk=holoCaM-CaMKII.loop3.water3.frame290.chk
%nprocshared=20
%mem=10GB
%nosave
#b3lyp/svp scf=(tight,noincore,xqc) Test 
#IOP(5/87=12) Density=Current Pop=(MK,readradii) iop(6/33=2) iop(6/42=6)

holoCaM-CaMKII.loop3.water3.frame290 

   0  1 
C         47.62310       34.45647       81.15083
C         46.71981       34.43858       82.33906
O         47.20059       34.26845       83.45186
H         48.67674       34.29408       81.46290
H         47.32211       33.65900       80.44218
H         47.54606       35.44686       80.65451
N         45.38333       34.64543       82.18183
C         44.49657       34.72986       83.32419
C         44.42504       33.38766       84.05370
O         43.99792       32.39861       83.47491
C         43.09276       35.20861       82.91259
C         42.29646       35.54569       84.12934
O         42.88430       35.51266       85.33406
O         41.12036       35.84125       84.03656
H         45.00944       34.81314       81.23488
H         44.92326       35.51656       83.98796
H         42.58057       34.41063       82.33226
H         43.15218       36.12708       82.29092
N         44.87525       33.29809       85.33264
C         44.97946       32.05837       86.09350
C         43.62218       31.43057       86.41066
O         43.52330       30.21527       86.31432
C         45.84022       32.32987       87.34780
C         46.32045       31.06832       88.08105
C         47.38102       31.45206       89.12827
C         47.95405       30.22583       89.84880
N         48.99985       30.62252       90.79362
H         45.24758       34.15656       85.76081
H         45.57004       31.33816       85.48386
H         45.31798       33.01479       88.04666
H         46.75918       32.84434       86.98304
H         46.79561       30.38022       87.34694
H         45.46202       30.54833       88.55759
H         46.93800       32.14832       89.87299
H         48.22062       31.97262       88.61408
H         48.38957       29.52441       89.10219
H         47.13995       29.70065       90.39442
H         48.61047       31.27622       91.51117
H         49.37103       29.77189       91.27497
H         49.78640       31.08945       90.28508
N         42.53880       32.18112       86.78713
C         41.23132       31.60318       87.11915
C         40.10163       32.00334       86.16637
O         38.98101       31.56085       86.38319
C         40.89445       31.81711       88.61575
C         40.45438       33.15253       89.18116
O         40.18818       33.19279       90.36992
O         40.25459       34.27733       88.47725
H         42.65697       33.19361       86.84483
H         41.29405       30.49595       87.02043
H         41.77420       31.46978       89.19845
H         40.05169       31.13060       88.85442
N         40.32546       32.74721       85.04250
C         39.29821       33.00030       84.03766
C         38.19755       33.96219       84.44761
O         37.29345       34.14713       83.64322
H         41.28128       33.05536       84.82356
H         38.84614       32.02813       83.73665
H         39.77707       33.43157       83.13178
N         38.18372       34.62399       85.64412
C         37.08672       35.52075       86.02068
C         36.98934       36.76478       85.13511
O         35.99697       37.47126       85.23153
C         37.18961       35.95305       87.50169
C         38.26279       36.99324       87.74123
N         37.95461       38.19623       88.27835
O         39.41641       36.75825       87.43456
H         38.94119       34.45047       86.31540
H         36.15230       34.92376       85.91763
H         37.37646       35.05600       88.13157
H         36.21191       36.37816       87.81404
H         36.98723       38.42675       88.54555
H         38.69086       38.90190       88.43025
N         38.00349       37.11454       84.29136
C         37.97561       38.27002       83.41303
C         39.10594       39.24981       83.66855
O         39.23568       40.15658       82.85320
H         38.84366       36.53265       84.24369
H         37.01245       38.82046       83.47463
H         38.07812       37.88916       82.37429
N         39.93614       39.19059       84.75843
C         41.01193       40.16001       84.97955
C         42.36455       39.50381       85.22035
O         42.43801       38.29877       85.43269
C         40.70081       41.08775       86.17200
C         39.48464       41.95199       85.95379
C         39.64537       43.31464       85.64918
C         38.18779       41.42491       86.07364
C         38.53144       44.13445       85.46084
C         37.07276       42.25148       85.89806
C         37.24247       43.60999       85.58965
O         36.17873       44.42049       85.41993
H         39.77884       38.46764       85.47721
H         41.13182       40.80233       84.07805
H         41.57598       41.75873       86.30908
H         40.58695       40.51679       87.11728
H         40.63507       43.74316       85.54824
H         38.03807       40.38185       86.32073
H         38.67268       45.18053       85.21963
H         36.07859       41.83686       86.00619
H         35.26941       44.10351       85.51330
N         43.49355       40.26800       85.17762
C         44.85812       39.79397       85.39827
C         45.53421       40.69436       86.42826
O         45.51186       41.90986       86.25661
C         45.64946       39.81916       84.05629
C         44.97221       38.88123       83.02105
C         47.11980       39.39660       84.28557
C         45.56929       38.97877       81.61655
H         43.38579       41.26452       84.92028
H         44.86337       38.73842       85.75659
H         45.63561       40.85968       83.66139
H         43.90058       39.14975       82.91769
H         45.02955       37.82951       83.37426
H         47.71128       39.44832       83.35143
H         47.62418       40.07846       84.99991
H         47.17203       38.36183       84.68922
H         45.01003       38.30456       80.93412
H         45.47739       40.01949       81.23903
H         46.63240       38.66955       81.59291
N         46.22095       40.16822       87.47958
C         46.93820       40.96382       88.47460
C         48.44274       40.76591       88.34800
O         48.87331       40.03007       87.47152
C         46.44223       40.58041       89.87842
O         46.73610       39.23509       90.14186
H         46.27727       39.14227       87.55575
H         46.74178       42.04884       88.32443
H         45.34205       40.74905       89.91826
H         46.92781       41.21686       90.64836
H         46.20745       38.98352       90.94266
N         49.31116       41.41436       89.17253
C         50.76520       41.27178       89.09966
C         51.20555       39.84595       89.38801
O         51.92424       39.27274       88.58375
C         51.44559       42.21684       90.09685
H         48.91917       42.05744       89.88011
H         51.11369       41.56937       88.08408
H         52.55059       42.12464       90.01691
H         51.16863       43.26830       89.86991
H         51.14201       41.98537       91.13997
N         50.80031       39.21608       90.52853
C         51.19133       37.85417       90.89321
C         50.86325       36.86854       89.79038
O         51.73353       36.09888       89.40589
C         50.48560       37.43595       92.18805
H         50.16592       39.72873       91.15954
H         52.28713       37.82264       91.08628
H         50.80070       36.41170       92.48229
H         50.75807       38.13283       93.00929
H         49.38204       37.44969       92.05851
N         49.64049       36.88509       89.19271
C         49.27209       36.02152       88.07151
C         50.29261       36.14974       86.95175
O         50.86283       35.14475       86.55038
C         47.86669       36.39616       87.55103
C         46.76485       36.09218       88.58149
C         45.42823       36.59001       88.11478
O         44.73092       37.45679       88.87228
O         44.96231       36.21323       87.05496
H         48.96592       37.59287       89.52033
H         49.25464       34.95863       88.40377
H         47.64218       35.81594       86.62820
H         47.86085       37.47475       87.28824
H         46.98341       36.57327       89.55598
H         46.71680       34.99511       88.74491
N         50.60462       37.36534       86.43107
C         51.60787       37.54350       85.40663
H         52.58844       37.16686       85.76869
H         51.31201       37.00058       84.48554
H         51.71358       38.62434       85.16994
H         50.13726       38.19935       86.79518
Ca        41.65168       35.31256       87.11734
O         43.58838       34.44787       89.50601
H         42.92756       34.37021       90.23792
H         44.46644       34.38660       89.95924
O         42.32235       39.22237       88.67984
H         43.08756       39.51627       88.12496
H         41.97807       40.05655       89.08677
O         40.98310       36.97570       90.25629
H         40.44985       37.24239       91.04535
H         40.42665       36.28772       89.81939

Ca 1.0



