%chk=holoCaM.loop2.water2.frame57.chk
%nprocshared=20
%mem=10GB
%nosave
#b3lyp/svp scf=(tight,noincore,xqc) Test 
#IOP(5/87=12) Density=Current Pop=(MK,readradii) iop(6/33=2) iop(6/42=6)

holoCaM.loop2.water2.frame57 

   -2  1 
C         85.82946       22.76261       31.63226
C         85.02025       24.00733       31.46774
O         84.56744       24.29004       30.36702
H         86.83226       23.04891       32.01236
H         85.33983       22.08249       32.35977
H         85.94964       22.23943       30.66035
N         84.80749       24.81616       32.54127
C         84.09399       26.07887       32.44013
C         84.86186       27.02415       31.52883
O         85.96622       27.43974       31.84841
C         83.75807       26.60121       33.84076
C         83.23083       28.01076       33.91303
O         83.92333       28.78991       34.52935
O         82.05293       28.47863       33.41122
H         85.17713       24.51668       33.45688
H         83.15097       25.87326       31.97275
H         84.70158       26.57451       34.43143
H         83.05730       25.89457       34.33370
N         84.32745       27.30903       30.30779
C         85.03953       27.90451       29.19160
C         84.80143       29.39952       29.13994
O         85.76773       30.13409       28.98543
C         84.60725       27.18113       27.90699
H         83.42872       26.87213       30.07964
H         86.13116       27.70474       29.28912
H         85.25041       27.46165       27.04798
H         84.71049       26.08150       28.06072
H         83.54439       27.39300       27.66644
N         83.55568       29.93497       29.33458
C         83.37777       31.37117       29.55916
C         83.90660       31.79084       30.92829
O         84.27033       32.95025       31.06929
C         81.95806       31.90436       29.26551
C         80.81609       31.27139       30.00201
O         80.99472       30.24480       30.85289
O         79.69010       31.69220       29.79566
H         82.76372       29.29521       29.48523
H         84.01229       31.89925       28.81126
H         81.74889       31.78363       28.18134
H         81.94529       32.99356       29.49514
N         84.06188       30.90069       31.95470
C         84.87769       31.21244       33.12433
C         84.13331       31.75260       34.33522
O         84.80002       32.10385       35.29838
H         83.76751       29.92242       31.81884
H         85.67528       31.92452       32.83627
H         85.42501       30.29279       33.41975
N         82.77409       31.83498       34.38150
C         82.00415       32.34030       35.53026
C         82.08504       31.49171       36.82064
O         81.38082       31.81420       37.76878
C         80.53238       32.60377       35.11749
C         79.74704       31.40679       34.63423
N         78.63984       31.00801       35.29495
O         80.07348       30.82392       33.61228
H         82.26965       31.56616       33.53037
H         82.39536       33.34742       35.79649
H         80.52366       33.36067       34.30343
H         80.00613       33.06440       35.98230
H         78.32938       31.47928       36.15375
H         78.07614       30.23161       34.93743
N         82.96733       30.46373       36.97232
C         83.14975       29.70571       38.19678
C         82.15611       28.58723       38.36201
O         82.02887       28.09813       39.47394
H         83.62297       30.25002       36.23106
H         83.20829       30.37203       39.08427
H         84.13500       29.19036       38.14068
N         81.56984       28.00304       37.27713
C         80.76701       26.78576       37.36326
C         80.64408       26.08259       36.02759
O         80.76080       26.68925       34.97648
C         79.33931       26.99317       37.93243
C         79.27079       27.15243       39.44970
O         78.67142       28.03912       37.26900
H         81.81538       28.36685       36.34622
H         81.33249       26.05794       37.98811
H         78.77149       26.05498       37.74396
H         78.78202       28.88240       37.78149
H         79.65640       28.13563       39.77737
H         78.20944       27.07652       39.76534
H         79.84259       26.33214       39.93300
N         80.39062       24.74716       36.03204
C         80.31978       23.92768       34.83924
C         78.87163       23.83242       34.39740
O         78.03017       23.38074       35.16146
C         80.91437       22.51756       35.12946
C         82.37695       22.61348       35.63999
C         80.80019       21.61304       33.89147
C         82.92709       21.25696       36.08951
H         80.29058       24.27377       36.94282
H         80.93959       24.37942       34.03146
H         80.31248       22.05530       35.94302
H         82.39379       23.26637       36.53718
H         83.05438       23.06364       34.88002
H         79.73324       21.45803       33.65598
H         81.31535       22.06375       33.01720
H         81.20705       20.60211       34.07970
H         82.20055       20.75394       36.76429
H         83.13538       20.60066       35.22032
H         83.87593       21.40052       36.64652
N         78.53360       24.20477       33.13554
C         77.24032       23.96946       32.52140
C         77.23740       22.57647       31.93448
O         78.28915       21.97883       31.85287
C         77.02639       24.99853       31.39086
C         77.11221       26.40299       31.90172
O         78.06373       27.24236       31.41809
O         76.28441       26.79723       32.70783
H         79.28148       24.49127       32.51421
H         76.44374       24.04253       33.29351
H         76.03966       24.85168       30.90833
H         77.82079       24.86544       30.62074
N         76.09010       21.96796       31.54520
C         76.05637       20.60244       31.02227
C         76.77025       20.48940       29.66578
O         77.59774       19.59834       29.53908
C         74.60720       20.06940       31.08722
C         74.44650       18.61548       30.71010
C         75.24361       17.61633       31.30185
C         73.45846       18.23881       29.78380
C         75.07449       16.27581       30.94867
C         73.28115       16.89327       29.44753
C         74.09467       15.91387       30.02242
H         75.20411       22.47291       31.69365
H         76.62002       19.96042       31.73491
H         73.92017       20.70502       30.49662
H         74.29227       20.15707       32.15125
H         76.00133       17.86332       32.03216
H         72.81220       18.98295       29.33451
H         75.70212       15.51748       31.39848
H         72.51118       16.60947       28.74208
H         73.96237       14.87374       29.75560
N         76.58773       21.37456       28.63411
C         77.40493       21.41168       27.41799
C         78.90727       21.41317       27.70763
O         79.63955       20.66851       27.07308
C         76.98172       22.72787       26.74534
C         75.53437       22.83805       27.16522
C         75.61095       22.43993       28.63166
H         77.13553       20.54716       26.77159
H         77.50631       23.58943       27.21802
H         77.15949       22.76225       25.64861
H         75.05190       23.82164       26.98375
H         74.96246       22.05135       26.62034
H         75.98705       23.26922       29.26121
H         74.60341       22.11555       28.95163
N         79.42151       22.20154       28.69349
C         80.82588       22.18315       29.11565
C         81.21847       20.80451       29.65354
O         82.27369       20.30633       29.28884
C         81.06370       23.30073       30.15484
C         80.96332       24.68297       29.46524
C         81.00757       25.82436       30.41255
O         81.01555       25.60391       31.73248
O         81.01114       26.96824       29.98516
H         78.76499       22.81078       29.20768
H         81.49593       22.41796       28.25958
H         82.07873       23.21808       30.60309
H         80.32834       23.19974       30.97581
H         80.01328       24.79112       28.90561
H         81.81852       24.78763       28.76327
N         80.38727       20.10440       30.47178
C         80.65979       18.77291       30.96924
H         81.54438       18.78070       31.63744
H         79.78282       18.40938       31.55239
H         80.81963       18.07053       30.12418
H         79.49044       20.50827       30.71847
Ca        80.07808       27.89168       32.37550
O         77.71117       29.93764       31.59606
H         77.31511       29.71195       30.71724
H         78.22360       30.76494       31.43551
O         78.30498       27.90780       34.31761
H         77.81919       27.65421       35.13266
H         77.64000       28.41279       33.78931

Ca 1.0



