%chk=holoCaM-CaMKII.loop2.water2.frame25.chk
%nprocshared=20
%mem=10GB
%nosave
#b3lyp/svp scf=(tight,noincore,xqc) Test 
#IOP(5/87=12) Density=Current Pop=(MK,readradii) iop(6/33=2) iop(6/42=6)

holoCaM-CaMKII.loop2.water2.frame25 

   -2  1 
C         37.64121       55.19862       12.85263
C         37.05889       53.90975       12.34416
O         37.14803       52.89538       13.01940
H         38.40139       55.57769       12.13807
H         36.83243       55.95584       12.94798
H         38.11397       55.06278       13.84809
N         36.40948       53.89749       11.15020
C         35.72887       52.72792       10.60339
C         36.71347       51.62072       10.23055
O         37.66653       51.89664        9.51524
C         34.93162       53.14778        9.34837
C         33.94199       52.10777        8.90737
O         33.27749       52.28925        7.90097
O         33.72282       51.01229        9.65210
H         36.34752       54.79073       10.63576
H         34.99561       52.37634       11.36408
H         35.63927       53.38191        8.52376
H         34.33885       54.06111        9.56889
N         36.51184       50.33455       10.64266
C         37.40516       49.22146       10.32615
C         36.72485       48.11529        9.51286
O         37.35761       47.08450        9.32372
C         37.92333       48.63376       11.64585
H         35.68336       50.12816       11.21589
H         38.28990       49.56620        9.74742
H         38.44773       49.41548       12.23448
H         37.08289       48.22975       12.25075
H         38.64565       47.81115       11.45006
N         35.46872       48.23826        8.98112
C         34.78355       47.12596        8.31751
C         33.67996       47.57001        7.34614
O         33.67534       47.05714        6.23510
C         34.34934       46.05197        9.35770
C         33.43956       46.51592       10.46406
O         33.29802       45.82369       11.45918
O         32.82248       47.70093       10.40317
H         34.98243       49.13250        9.06375
H         35.52004       46.60486        7.66319
H         35.27944       45.70688        9.85788
H         33.90156       45.16530        8.86134
N         32.72993       48.50308        7.65711
C         31.65649       48.90177        6.75487
C         30.27930       48.55332        7.29969
O         29.30186       48.86378        6.63407
H         32.75354       48.98320        8.55938
H         31.75149       48.40318        5.76629
H         31.72557       49.99771        6.58660
N         30.11834       47.86412        8.46793
C         28.82967       47.38188        8.95775
C         27.81933       48.47092        9.30964
O         26.65908       48.12661        9.48722
C         29.03359       46.41987       10.15607
C         29.70491       47.02849       11.36994
N         29.91845       46.26844       12.46642
O         30.07021       48.19352       11.37052
H         30.95253       47.57828        8.98516
H         28.38314       46.78456        8.13249
H         29.66725       45.57068        9.81874
H         28.04869       46.01012       10.46451
H         29.62951       45.28040       12.48814
H         30.37317       46.66899       13.29689
N         28.16638       49.78110        9.45437
C         27.19995       50.83996        9.71505
C         27.29457       51.42840       11.10680
O         26.57788       52.38757       11.35848
H         29.15198       50.05117        9.37240
H         26.15520       50.47729        9.60035
H         27.35387       51.63768        8.95798
N         28.07296       50.88030       12.08629
C         28.06628       51.36045       13.46591
C         29.46068       51.68572       13.97159
O         30.44945       51.36947       13.32332
C         27.42866       50.27875       14.38407
C         25.96416       50.02189       14.02628
O         28.13372       49.06598       14.28439
H         28.62851       50.04378       11.87673
H         27.46757       52.29313       13.55171
H         27.42156       50.62316       15.44431
H         28.90528       49.12439       14.90539
H         25.37586       50.95820       14.13042
H         25.86828       49.64385       12.98687
H         25.53837       49.26134       14.71562
N         29.58762       52.26870       15.19637
C         30.84092       52.37678       15.92450
C         30.92942       51.14178       16.78894
O         29.99811       50.87954       17.54106
C         30.86432       53.66039       16.81357
C         30.79473       54.93493       15.93736
C         32.12368       53.68011       17.71282
C         30.62453       56.22218       16.75197
H         28.72361       52.47643       15.72134
H         31.71133       52.41247       15.23156
H         29.97067       53.63735       17.47753
H         29.91614       54.86682       15.26180
H         31.70972       55.01253       15.30974
H         32.15317       52.78962       18.37269
H         33.04858       53.69617       17.09760
H         32.12716       54.55069       18.39677
H         31.48848       56.41133       17.41962
H         30.54379       57.08831       16.06275
H         29.69687       56.16839       17.36122
N         32.04327       50.36170       16.77179
C         32.20198       49.20756       17.64220
C         33.11642       49.57184       18.78472
O         33.68432       50.65496       18.77682
C         32.75210       48.01179       16.84889
C         31.85963       47.66007       15.69781
O         30.58942       47.27257       15.92012
O         32.28497       47.72134       14.55566
H         32.84505       50.65000       16.19367
H         31.22400       48.93103       18.09529
H         32.84291       47.12230       17.50632
H         33.76474       48.26861       16.46294
N         33.25055       48.74798       19.85464
C         34.05075       49.11219       21.01366
C         35.53242       49.21469       20.65606
O         36.10177       50.25464       20.94701
C         33.72785       48.19258       22.20952
C         34.36861       48.63275       23.50857
C         35.11794       47.71772       24.26685
C         34.19486       49.94360       24.00011
C         35.67901       48.10348       25.48860
C         34.77112       50.32786       25.21328
C         35.50923       49.40788       25.95922
H         32.71083       47.86681       19.86945
H         33.70905       50.12055       21.33270
H         33.97608       47.13792       21.98440
H         32.62770       48.23939       22.36687
H         35.25306       46.70003       23.92325
H         33.61635       50.67659       23.45486
H         36.24220       47.38872       26.07368
H         34.63809       51.33858       25.57823
H         35.94476       49.70503       26.90427
N         36.21387       48.23996       19.96412
C         37.58627       48.38752       19.47983
C         37.86648       49.73990       18.84862
O         38.87497       50.35719       19.16309
C         37.69481       47.29140       18.40501
C         36.84305       46.19845       18.99794
C         35.64112       46.99047       19.49991
H         38.29234       48.18208       20.31443
H         37.17826       47.61134       17.46947
H         38.73443       47.00099       18.14259
H         36.58790       45.36280       18.31116
H         37.39246       45.78899       19.87568
H         34.93948       47.20736       18.66852
H         35.14244       46.40116       20.29166
N         36.99070       50.25583       17.94603
C         37.18809       51.51392       17.23240
C         37.24025       52.67431       18.20243
O         38.24590       53.36838       18.24640
C         36.05768       51.72889       16.20168
C         36.03960       50.58244       15.18312
C         34.89682       50.62439       14.23559
O         34.74390       49.55371       13.45483
O         34.10343       51.55052       14.18828
H         36.13782       49.70695       17.76612
H         38.14795       51.46204       16.66893
H         36.20303       52.69187       15.66466
H         35.07762       51.76347       16.72408
H         35.93273       49.60792       15.69326
H         36.98900       50.55534       14.60656
N         36.18630       52.93931       19.02019
C         36.19281       54.02710       19.96951
H         35.23155       54.04230       20.52683
H         37.02235       53.88914       20.69431
H         36.31258       54.99371       19.43708
H         35.34978       52.34766       18.97593
Ca        33.16762       49.22320       11.95689
O         31.02262       51.38337       10.40458
H         31.16667       51.11332        9.46290
H         30.40454       52.15408       10.34728
O         32.49241       53.32745       12.22989
H         32.90855       53.98834       11.62243
H         32.76654       53.61787       13.13534

Ca 1.0



