%chk=holoCaM.loop1.water2.frame335.chk
%nprocshared=20
%mem=10GB
%nosave
#b3lyp/svp scf=(tight,noincore,xqc) Test 
#IOP(5/87=12) Density=Current Pop=(MK,readradii) iop(6/33=2) iop(6/42=6)

holoCaM.loop1.water2.frame335 

   0  1 
C          4.84046       36.42862        5.00776
C          4.25465       37.25344        3.89978
O          4.74889       38.33382        3.62737
H          5.70434       36.94577        5.47597
H          4.06493       36.26340        5.78718
H          5.17186       35.44549        4.61427
N          3.17802       36.78901        3.21556
C          2.46640       37.54635        2.18688
C          1.83275       38.79014        2.79557
O          1.04959       38.67254        3.72710
C          1.43991       36.60824        1.52529
C          0.40952       37.24708        0.63981
O          0.69083       38.07339       -0.38615
O         -0.76416       36.99230        0.85666
H          2.83951       35.84506        3.46268
H          3.17048       37.85189        1.38854
H          0.87998       36.06116        2.31700
H          2.00320       35.85240        0.93621
N          2.14154       40.02363        2.29539
C          1.63492       41.28841        2.82509
C          0.73321       42.00209        1.82066
O          0.32061       43.11944        2.09973
C          2.83510       42.19887        3.19277
C          3.83425       41.56089        4.17449
C          3.22383       41.23907        5.54995
C          4.18069       40.46895        6.47772
N          5.41243       41.20335        6.76638
H          2.78278       40.07982        1.49041
H          1.01551       41.12386        3.73012
H          2.46831       43.15543        3.62475
H          3.39393       42.43845        2.25982
H          4.68071       42.26720        4.30780
H          4.23762       40.64545        3.71182
H          2.33517       40.58893        5.42533
H          2.90043       42.18458        6.03662
H          4.43430       39.48650        6.02402
H          3.64549       40.26971        7.43272
H          5.98911       41.30774        5.90149
H          5.18951       42.14161        7.16968
H          5.97182       40.65859        7.46208
N          0.35208       41.40742        0.65355
C         -0.49377       42.03647       -0.35671
C         -1.82075       41.30139       -0.50887
O         -2.63990       41.73850       -1.30586
C          0.23299       41.95840       -1.71396
C          1.62806       42.51208       -1.66922
O          2.67999       41.66334       -1.69233
O          1.81452       43.71564       -1.58952
H          0.66368       40.45074        0.46056
H         -0.70427       43.09482       -0.08828
H         -0.34566       42.45397       -2.52448
H          0.30718       40.88391       -1.98502
N         -2.08264       40.14536        0.16787
C         -3.26186       39.33256       -0.05983
C         -3.33140       38.86571       -1.49727
O         -4.37545       39.00149       -2.11788
H         -1.40342       39.77112        0.84399
H         -4.18344       39.88203        0.22838
H         -3.18650       38.42935        0.58542
N         -2.23503       38.31276       -2.08869
C         -2.21060       37.76803       -3.44082
C         -1.81591       36.28759       -3.43298
O         -1.71149       35.70466       -4.50292
C         -1.32300       38.64390       -4.36135
C          0.14757       38.70437       -4.05180
O          0.68488       37.99420       -3.05023
O          0.87276       39.40757       -4.73661
H         -1.36563       38.27855       -1.54739
H         -3.22654       37.82065       -3.88906
H         -1.72005       39.68236       -4.32287
H         -1.42728       38.28015       -5.40624
N         -1.64956       35.59673       -2.26162
C         -1.39453       34.16633       -2.18572
C         -0.00337       33.72808       -2.59260
O          0.23900       32.52979       -2.53034
H         -1.80624       36.06748       -1.36188
H         -2.15625       33.62995       -2.79243
H         -1.52270       33.84464       -1.12899
N          0.96032       34.59773       -3.01370
C          2.29525       34.17004       -3.42888
C          3.38469       34.88401       -2.63602
O          3.08068       35.75956       -1.83444
C          2.46776       34.38768       -4.95402
C          1.42441       33.60320       -5.76510
O          2.43010       35.75182       -5.29115
H          0.73849       35.59631       -3.07329
H          2.42418       33.08153       -3.23655
H          3.46192       33.99694       -5.25773
H          1.49920       36.07603       -5.18163
H          1.60729       33.74417       -6.85071
H          1.48889       32.51956       -5.53014
H          0.39599       33.95552       -5.53584
N          4.69043       34.52383       -2.80104
C          5.81540       35.10619       -2.07444
C          6.81736       35.69071       -3.06972
O          7.27450       34.97793       -3.95396
C          6.46546       34.01245       -1.16618
C          5.47339       33.46133       -0.10060
C          7.75668       34.49660       -0.47924
C          4.97623       34.48669        0.93236
H          4.90562       33.75741       -3.45866
H          5.47957       35.92588       -1.41029
H          6.75832       33.15749       -1.81574
H          5.97252       32.63758        0.45572
H          4.58991       33.02335       -0.61094
H          8.19368       33.68334        0.13871
H          8.51913       34.77782       -1.23143
H          7.56711       35.36652        0.17418
H          5.81311       34.91447        1.52102
H          4.41401       35.31058        0.45282
H          4.28939       33.98561        1.64641
N          7.25714       36.97469       -2.92174
C          8.32544       37.58701       -3.71808
C          9.63174       37.52069       -2.94942
O          9.65046       36.98667       -1.85672
C          7.99942       39.07724       -4.04099
C          6.90516       39.24339       -5.09319
O          7.70953       39.80119       -2.86746
H          6.91690       37.49560       -2.10105
H          8.49594       37.02646       -4.66369
H          8.88041       39.56211       -4.50697
H          6.75094       39.67294       -2.64471
H          5.95714       38.80962       -4.74220
H          6.75954       40.32483       -5.30313
H          7.21069       38.74617       -6.03778
N         10.77684       38.04158       -3.46968
C         12.04706       38.10662       -2.74551
C         11.91019       38.92780       -1.46429
O         12.27770       38.42677       -0.41105
C         13.16541       38.68277       -3.64975
C         13.54331       37.69880       -4.76277
O         12.76116       39.90183       -4.22598
H         10.73704       38.43106       -4.42324
H         12.36591       37.07967       -2.45299
H         14.08667       38.81751       -3.03281
H         13.36328       40.61379       -3.88915
H         13.91102       36.74837       -4.31772
H         12.67757       37.47147       -5.41884
H         14.35848       38.12567       -5.38409
N         11.36392       40.18097       -1.47224
C         11.20264       41.01446       -0.26745
C         10.33405       40.39626        0.83684
O         10.25217       40.98469        1.90615
C         10.64006       42.41090       -0.63630
C          9.23893       42.34893       -1.27372
C          8.70799       43.73625       -1.63704
C          7.39813       43.61272       -2.43091
N          6.88326       44.92850       -2.80378
H         11.07543       40.55806       -2.38482
H         12.21601       41.16340        0.16586
H         11.33994       42.89605       -1.35042
H         10.59870       43.04269        0.27884
H          8.52232       41.87189       -0.57837
H          9.28751       41.74998       -2.20257
H          9.45508       44.26084       -2.27070
H          8.54443       44.32704       -0.70859
H          6.63349       43.07165       -1.82988
H          7.59137       43.02533       -3.35744
H          7.60211       45.45488       -3.35200
H          6.03133       44.80515       -3.39745
H          6.62676       45.46772       -1.94555
N          9.68224       39.21672        0.66655
C          8.88108       38.54729        1.68284
C          9.64281       37.33219        2.18675
O          9.76384       37.17615        3.39381
C          7.50339       38.20068        1.08562
C          6.74459       39.49412        0.75015
C          5.43847       39.29356        0.05572
O          5.02640       38.18237       -0.23420
O          4.72854       40.38186       -0.28468
H          9.74938       38.74533       -0.23684
H          8.70471       39.19936        2.56811
H          6.90298       37.60758        1.81031
H          7.64488       37.60266        0.16304
H          7.35582       40.11155        0.06939
H          6.55938       40.06193        1.68778
N         10.26992       36.48142        1.32963
C         11.10877       35.39411        1.77750
H         11.92331       35.78946        2.42254
H         10.50610       34.65154        2.33686
H         11.57729       34.89737        0.89958
H         10.20862       36.63544        0.32374
Ca         2.29730       39.46998       -1.16023
O          4.50317       41.08327       -3.84287
H          4.88876       41.69937       -4.51435
H          4.95187       41.33157       -2.99633
O          3.64674       38.05232       -4.11498
H          3.56085       38.47593       -5.00652
H          4.26920       37.29556       -4.26055

Ca 1.0



