%chk=holoCaM-CaMKII.loop2.water2.frame385.chk
%nprocshared=20
%mem=10GB
%nosave
#b3lyp/svp scf=(tight,noincore,xqc) Test 
#IOP(5/87=12) Density=Current Pop=(MK,readradii) iop(6/33=2) iop(6/42=6)

holoCaM-CaMKII.loop2.water2.frame385 

   -2  1 
C         51.23789      -19.94763       51.45503
C         50.03042      -20.84161       51.40676
O         50.06015      -21.90933       51.99955
H         52.11517      -20.46561       51.01698
H         51.06728      -19.00272       50.89587
H         51.45881      -19.68564       52.51208
N         48.91035      -20.44915       50.74077
C         47.66970      -21.21404       50.74350
C         47.80379      -22.55810       50.04411
O         48.17391      -22.59821       48.87903
C         46.54759      -20.40216       50.06954
C         45.23254      -21.11503       50.19036
O         44.75156      -21.41328       51.40904
O         44.60720      -21.44159       49.19484
H         48.92222      -19.53248       50.26647
H         47.36848      -21.36627       51.80365
H         46.79405      -20.22093       48.99985
H         46.44948      -19.41899       50.57771
N         47.42788      -23.69473       50.69634
C         47.38955      -25.02051       50.08951
C         45.97294      -25.60617       50.07582
O         45.81553      -26.71592       49.58587
C         48.31841      -25.94641       50.88379
H         47.11766      -23.60957       51.67269
H         47.74884      -24.98009       49.03876
H         48.34024      -26.96279       50.43656
H         49.35217      -25.54082       50.88508
H         47.97139      -26.03365       51.93643
N         44.90843      -24.95227       50.63245
C         43.57398      -25.53082       50.77403
C         42.48913      -24.59748       50.24453
O         41.75987      -24.99160       49.34501
C         43.35167      -25.96244       52.25500
C         44.01214      -25.08134       53.29691
O         43.65171      -23.80449       53.50532
O         44.95212      -25.52893       53.93416
H         45.05296      -24.03287       51.06621
H         43.47837      -26.46777       50.17959
H         43.86085      -26.94738       52.35495
H         42.27621      -26.13652       52.47172
N         42.29485      -23.36912       50.78701
C         41.23282      -22.44997       50.42491
C         40.27839      -22.29844       51.59056
O         39.08127      -22.45438       51.39691
H         42.92641      -23.05978       51.52101
H         40.66586      -22.79196       49.53111
H         41.69206      -21.46831       50.17800
N         40.74728      -22.01704       52.84105
C         39.90144      -21.85250       54.01890
C         40.04273      -20.44684       54.60402
O         39.48297      -20.18667       55.65984
C         40.18400      -22.98362       55.04239
C         41.55501      -23.02691       55.67301
N         41.85318      -24.01691       56.54610
O         42.39696      -22.18392       55.41160
H         41.76137      -21.91568       52.97488
H         38.82996      -21.97378       53.74817
H         40.01586      -23.95574       54.52714
H         39.44248      -22.90963       55.86707
H         41.15892      -24.74203       56.78016
H         42.78057      -24.06287       56.98892
N         40.71437      -19.46558       53.92747
C         40.80612      -18.08001       54.36062
C         41.74083      -17.81920       55.52713
O         41.88576      -16.65667       55.87711
H         41.10512      -19.66872       52.99801
H         39.78756      -17.69512       54.58233
H         41.21026      -17.48665       53.51140
N         42.41231      -18.81284       56.17480
C         43.33271      -18.57900       57.28760
C         44.70273      -19.18554       57.00238
O         44.89109      -19.81057       55.96855
C         42.72232      -19.17150       58.58760
C         41.50938      -18.35402       59.03960
O         42.32895      -20.50789       58.40072
H         42.25832      -19.78661       55.89089
H         43.50152      -17.49155       57.45043
H         43.44406      -19.11101       59.43165
H         43.15613      -21.04614       58.30223
H         41.81506      -17.30304       59.23770
H         40.71036      -18.35737       58.26955
H         41.09974      -18.77527       59.98216
N         45.70303      -19.05691       57.92251
C         47.01528      -19.68488       57.81281
C         47.07532      -20.80262       58.83605
O         46.83067      -20.56932       60.01232
C         48.16420      -18.64479       58.00701
C         48.18713      -17.66615       56.80254
C         49.52831      -19.35666       58.15945
C         49.28609      -16.60076       56.87053
H         45.50700      -18.53670       58.79130
H         47.15583      -20.14549       56.80997
H         47.98585      -18.07629       58.94725
H         47.20862      -17.14392       56.74175
H         48.33400      -18.23967       55.86199
H         49.77284      -19.94441       57.25119
H         50.34287      -18.63409       58.36115
H         49.52433      -20.03332       59.03802
H         50.29716      -17.05650       56.83270
H         49.20524      -15.93256       55.98748
H         49.18617      -15.99334       57.79347
N         47.43210      -22.05399       58.43417
C         47.50467      -23.20873       59.31635
C         48.91689      -23.40908       59.83281
O         49.81282      -22.66017       59.46451
C         47.03296      -24.45785       58.54435
C         45.62818      -24.29454       58.04496
O         45.39572      -24.32832       56.84741
O         44.61883      -24.11414       58.91758
H         47.69531      -22.19321       57.45023
H         46.85222      -23.04965       60.20352
H         47.06592      -25.35795       59.19096
H         47.71563      -24.62783       57.67958
N         49.17744      -24.40227       60.73079
C         50.49405      -24.63248       61.30898
C         51.52956      -24.94874       60.22918
O         52.54629      -24.27408       60.23425
C         50.44580      -25.72080       62.40404
C         51.79385      -25.89776       63.05198
C         52.28845      -24.92847       63.94056
C         52.57366      -27.02908       62.76068
C         53.54190      -25.09607       64.53620
C         53.83261      -27.18460       63.34578
C         54.31482      -26.22146       64.23627
H         48.39595      -25.00085       61.03977
H         50.80618      -23.69667       61.82818
H         50.10830      -26.68189       61.99512
H         49.70037      -25.45905       63.18645
H         51.69884      -24.05177       64.17978
H         52.21489      -27.77964       62.06678
H         53.91466      -24.35269       65.22879
H         54.43417      -28.05175       63.10711
H         55.28777      -26.34678       64.69254
N         51.37820      -25.92182       59.26868
C         52.34141      -26.14046       58.19199
C         52.61729      -24.87562       57.39420
O         53.77017      -24.54529       57.15381
C         51.64567      -27.16596       57.27703
C         50.80811      -27.94258       58.25681
C         50.25152      -26.82593       59.13254
H         53.27347      -26.57195       58.62058
H         50.91488      -26.66388       56.60283
H         52.33629      -27.76526       56.64602
H         50.03786      -28.60405       57.80612
H         51.49938      -28.56294       58.87331
H         49.41271      -26.28583       58.64379
H         49.91357      -27.30667       60.05926
N         51.56898      -24.13193       56.94021
C         51.68721      -22.96422       56.06594
C         52.37667      -21.78057       56.73324
O         52.65358      -20.80862       56.04389
C         50.27774      -22.53340       55.59414
C         49.59012      -23.66166       54.80370
C         48.14210      -23.42621       54.51177
O         47.52385      -24.31176       53.94836
O         47.47876      -22.31741       54.89257
H         50.62720      -24.44912       57.21290
H         52.28393      -23.25915       55.17371
H         50.32732      -21.62643       54.95196
H         49.68806      -22.28899       56.49868
H         49.60623      -24.61118       55.37044
H         50.13942      -23.83179       53.85385
N         52.67135      -21.77081       58.06151
C         53.34059      -20.66442       58.70576
H         54.34751      -20.52202       58.26028
H         52.74149      -19.73753       58.59143
H         53.46046      -20.88014       59.78972
H         52.40416      -22.56175       58.64947
Ca        45.29297      -22.51275       54.36519
O         43.72208      -19.38854       53.18894
H         43.44622      -20.32566       53.34968
H         43.47237      -19.21090       52.24742
O         46.57558      -19.64795       53.63853
H         46.63155      -18.78621       53.15557
H         47.40644      -19.69018       54.17345

Ca 1.0



