%chk=holoCaM.loop3.water3.frame484.chk
%nprocshared=20
%mem=10GB
%nosave
#b3lyp/svp scf=(tight,noincore,xqc) Test 
#IOP(5/87=12) Density=Current Pop=(MK,readradii) iop(6/33=2) iop(6/42=6)

holoCaM.loop3.water3.frame484 

   0  1 
C         86.90109       56.36960       47.40902
C         87.30524       54.92463       47.41088
O         87.96551       54.49717       46.47423
H         86.31402       56.62818       48.31533
H         87.80987       57.00785       47.38665
H         86.28361       56.58267       46.51219
N         86.96418       54.11079       48.45004
C         87.38158       52.71610       48.52151
C         86.70707       51.92518       47.40937
O         85.48660       51.83770       47.41162
C         87.03724       52.13845       49.91776
C         87.84484       50.91650       50.24446
O         87.83009       49.83107       49.45831
O         88.61741       50.95462       51.18410
H         86.43372       54.51651       49.23668
H         88.48785       52.70203       48.41024
H         85.94756       51.94692       50.01148
H         87.31153       52.89732       50.68511
N         87.43007       51.36918       46.39486
C         86.80305       50.66322       45.27749
C         86.08923       49.40685       45.75588
O         84.86837       49.37058       45.68210
C         87.84555       50.32132       44.18254
C         88.38271       51.55486       43.42529
C         87.33891       52.12236       42.43984
C         87.86784       53.28725       41.58672
N         88.08635       54.49994       42.37592
H         88.45080       51.50030       46.39730
H         86.03375       51.32850       44.83240
H         87.41249       49.62275       43.43294
H         88.69911       49.80223       44.66587
H         89.25520       51.22500       42.81947
H         88.73855       52.32031       44.14557
H         86.41756       52.45306       42.96024
H         87.06256       51.30309       41.73971
H         87.10863       53.51232       40.80435
H         88.80707       52.98901       41.06986
H         88.40079       55.26575       41.73696
H         87.19101       54.79376       42.83063
H         88.82216       54.34851       43.10068
N         86.77397       48.32442       46.22834
C         86.09820       47.09877       46.66178
C         85.41344       47.23599       48.02653
O         84.82600       46.26171       48.47725
C         87.05318       45.87895       46.61806
C         88.24850       45.94099       47.52291
O         88.50003       47.02897       48.26577
O         89.01667       44.99386       47.56793
H         87.80274       48.35193       46.21092
H         85.31430       46.84906       45.91183
H         87.42334       45.75328       45.57709
H         86.46954       44.96870       46.87830
N         85.41216       48.40655       48.73093
C         84.72781       48.57855       50.00362
C         85.33771       47.82868       51.17714
O         84.73839       47.88097       52.24159
H         85.84439       49.24234       48.32527
H         83.66809       48.26765       49.87619
H         84.72965       49.65657       50.27540
N         86.50338       47.11845       51.09020
C         87.02424       46.33491       52.21416
C         87.41541       47.17685       53.42751
O         87.65288       46.59620       54.47902
C         88.20771       45.43889       51.77603
C         89.49675       46.19581       51.53056
N         90.62287       45.86932       52.20732
O         89.53170       47.10289       50.71538
H         86.99531       47.07996       50.19214
H         86.19862       45.65136       52.51414
H         87.91894       44.88777       50.85461
H         88.38695       44.68023       52.56849
H         90.62709       45.10244       52.89516
H         91.50204       46.37687       52.03429
N         87.53985       48.53401       53.35428
C         87.88042       49.38233       54.48424
C         89.21946       50.07870       54.32142
O         89.52061       50.92645       55.14608
H         87.39186       49.00794       52.45299
H         87.91487       48.81310       55.43954
H         87.07958       50.14626       54.58262
N         90.10570       49.72815       53.33731
C         91.43878       50.31576       53.20852
C         91.66555       50.84309       51.80062
O         91.19910       50.23683       50.85020
C         92.52920       49.27886       53.54192
C         92.45643       48.81091       54.98078
C         91.40630       47.98788       55.42921
C         93.45160       49.20000       55.89446
C         91.34605       47.57907       56.76449
C         93.38854       48.79096       57.22941
C         92.33299       47.98063       57.66958
O         92.25815       47.58213       58.95542
H         89.86423       48.96613       52.69065
H         91.57833       51.15597       53.92421
H         93.50831       49.78165       53.37620
H         92.48733       48.40649       52.85728
H         90.63287       47.65506       54.75057
H         94.27262       49.83151       55.57865
H         90.52969       46.94932       57.09562
H         94.15940       49.10753       57.92060
H         92.91932       47.84086       59.61329
N         92.45545       51.94031       51.59945
C         92.72329       52.51392       50.28259
C         94.19162       52.33083       49.92700
O         95.05560       52.88525       50.58983
C         92.28997       54.01598       50.27266
C         90.74396       54.09541       50.34852
C         92.81726       54.76710       49.03421
C         90.18480       55.51740       50.42119
H         92.89674       52.38720       52.41642
H         92.13476       51.98840       49.49870
H         92.73464       54.51754       51.16158
H         90.39173       53.55310       51.25157
H         90.31439       53.59736       49.45486
H         93.92316       54.75477       49.01908
H         92.42307       54.32075       48.10101
H         92.55358       55.84175       49.06809
H         90.42185       56.09889       49.50744
H         89.07818       55.47026       50.49635
H         90.58563       56.04321       51.31262
N         94.52790       51.56466       48.84543
C         95.89208       51.42004       48.34048
C         96.36383       52.72666       47.70922
O         95.57229       53.64567       47.57656
C         95.90800       50.30495       47.26820
O         97.20434       50.06377       46.79512
H         93.77255       51.06687       48.35350
H         96.55535       51.11867       49.18037
H         95.24807       50.61559       46.42612
H         95.51322       49.36425       47.71090
H         97.10313       49.56693       45.94124
N         97.64087       52.87257       47.25953
C         98.08214       54.03791       46.49741
C         97.37666       54.07456       45.15053
O         96.80856       55.09957       44.80000
C         99.59496       53.99078       46.27520
H         98.31881       52.11812       47.44315
H         97.87460       54.96947       47.07227
H         99.89104       53.08436       45.70725
H         99.91950       54.89341       45.71323
H        100.11471       53.98834       47.25695
N         97.35035       52.95785       44.35936
C         96.69397       52.87851       43.05008
C         95.18340       53.10796       43.08453
O         94.57307       53.10481       42.02394
C         96.95905       51.49970       42.42929
H         97.83895       52.11847       44.70759
H         97.14592       53.64991       42.38926
H         96.51953       51.43442       41.41090
H         98.05198       51.32356       42.34566
H         96.51381       50.70083       43.06259
N         94.51658       53.34169       44.24525
C         93.09690       53.62548       44.33635
C         92.93032       55.10985       44.60143
O         92.25495       55.76738       43.82156
C         92.48708       52.73662       45.43113
C         92.54424       51.25116       45.02609
C         92.01153       50.39314       46.12710
O         90.79278       50.66789       46.60506
O         92.67414       49.48628       46.60551
H         95.02859       53.35360       45.13051
H         92.56784       53.40804       43.38039
H         91.42477       53.02608       45.59569
H         93.04122       52.88648       46.38316
H         93.58092       50.93906       44.78115
H         91.90925       51.10497       44.12591
N         93.57803       55.72189       45.63266
C         93.55907       57.15443       45.85146
H         94.59650       57.54485       45.76611
H         92.93175       57.69106       45.10905
H         93.17655       57.37279       46.86863
H         94.15549       55.16254       46.27075
Ca        89.69789       49.64815       48.25461
O         92.79710       47.90662       49.95477
H         93.09664       46.96757       50.04813
H         93.63025       48.43968       49.99878
O         90.32639       47.70396       45.48918
H         90.51521       46.75578       45.27850
H         90.59352       48.19733       44.67360
O         92.24394       46.16539       47.45171
H         91.34937       46.29283       47.85585
H         92.54190       45.28188       47.78427

Ca 1.0



