%chk=holoCaM.loop2.water3.frame370.chk
%nprocshared=20
%mem=10GB
%nosave
#b3lyp/svp scf=(tight,noincore,xqc) Test 
#IOP(5/87=12) Density=Current Pop=(MK,readradii) iop(6/33=2) iop(6/42=6)

holoCaM.loop2.water3.frame370 

   -2  1 
C        -13.80930       12.56525       63.35425
C        -14.11308       11.10041       63.28881
O        -13.22433       10.29328       63.05775
H        -12.85208       12.78014       62.83975
H        -14.59947       13.10993       62.78471
H        -13.80673       12.93572       64.39682
N        -15.41100       10.72376       63.31827
C        -15.88575        9.43625       62.86646
C        -16.29815        9.58099       61.39224
O        -17.01848       10.50613       61.05327
C        -17.05468        9.04282       63.75069
C        -17.77775        7.86726       63.25595
O        -17.47225        7.20864       62.28896
O        -18.85277        7.56247       63.89956
H        -16.12098       11.46166       63.44841
H        -15.12061        8.63399       62.97719
H        -17.78874        9.87524       63.81937
H        -16.73238        8.79647       64.78582
N        -15.82315        8.70523       60.46194
C        -16.05809        8.76195       59.01291
C        -17.48741        8.45216       58.52740
O        -17.73847        8.56087       57.33544
C        -14.99595        7.92073       58.30143
H        -15.15137        8.02728       60.80808
H        -15.86193        9.80260       58.70434
H        -15.12712        6.83562       58.46491
H        -15.00832        8.09810       57.21288
H        -14.00024        8.24587       58.68511
N        -18.47733        8.13143       59.39875
C        -19.91908        8.20885       59.15521
C        -20.63476        9.04091       60.26633
O        -21.83698        9.24009       60.16763
C        -20.53275        6.80073       59.02781
C        -20.14627        5.89829       60.15679
O        -20.99788        5.54728       60.93702
O        -18.88918        5.39313       60.22422
H        -18.19207        7.88974       60.33145
H        -20.11154        8.73917       58.19434
H        -20.20726        6.30250       58.09339
H        -21.64080        6.90935       58.96598
N        -19.94940        9.59168       61.31779
C        -20.45462       10.51356       62.33067
C        -21.20651        9.89592       63.49366
O        -21.36176       10.56100       64.50893
H        -18.95370        9.45517       61.36719
H        -21.08011       11.29649       61.86160
H        -19.56513       11.02394       62.76772
N        -21.74267        8.65510       63.40083
C        -22.65726        8.05261       64.37607
C        -22.11196        7.91531       65.81664
O        -22.89268        7.68273       66.72724
C        -23.08879        6.67882       63.83085
C        -24.06667        6.75432       62.67306
N        -23.66289        6.86294       61.38561
O        -25.25859        6.65530       62.91048
H        -21.55169        8.14286       62.53768
H        -23.55805        8.69705       64.45773
H        -23.56822        6.08995       64.63287
H        -22.19918        6.09697       63.53014
H        -22.68288        6.97873       61.14444
H        -24.33608        6.82204       60.60700
N        -20.79903        8.06337       66.08979
C        -20.14708        8.02074       67.38854
C        -19.53218        6.66964       67.67863
O        -19.62587        6.17719       68.79217
H        -20.21678        8.28416       65.31085
H        -20.79143        8.39242       68.20338
H        -19.27952        8.72539       67.31709
N        -18.81133        6.07103       66.70016
C        -17.96193        4.90566       66.79739
C        -16.81883        5.07698       65.78161
O        -17.04525        4.97230       64.58362
C        -18.76936        3.58648       66.61398
C        -19.15927        2.99409       67.94868
O        -19.97500        3.79579       65.93225
H        -18.78057        6.55137       65.81810
H        -17.46256        4.91956       67.78485
H        -18.13994        2.82305       66.09459
H        -19.75034        3.83844       64.98678
H        -19.83044        3.69405       68.48322
H        -19.70660        2.04467       67.76890
H        -18.25016        2.79437       68.55004
N        -15.57005        5.43638       66.22235
C        -14.43679        5.72446       65.34379
C        -13.67813        4.42323       65.06794
O        -13.14394        3.83611       65.99872
C        -13.44686        6.75682       65.98267
C        -14.11066        8.10385       66.35604
C        -12.30401        7.05785       64.99689
C        -13.23907        8.92192       67.32601
H        -15.44116        5.58858       67.23105
H        -14.82178        6.21969       64.42987
H        -13.04667        6.29626       66.91182
H        -15.07647        7.92591       66.86651
H        -14.31075        8.70152       65.43872
H        -12.75106        7.45885       64.06607
H        -11.60097        7.82236       65.36797
H        -11.71169        6.15074       64.77640
H        -13.75181        9.87438       67.56478
H        -13.08631        8.35417       68.27002
H        -12.23913        9.17818       66.92118
N        -13.56593        3.93880       63.80340
C        -12.80828        2.75598       63.41815
C        -11.34986        3.11683       63.19173
O        -11.04393        4.28544       63.18376
C        -13.41165        2.15927       62.13499
C        -14.87698        1.82673       62.25041
O        -15.21595        0.65455       62.26302
O        -15.80942        2.79148       62.03842
H        -14.01779        4.45067       63.06074
H        -12.85118        2.00011       64.22745
H        -12.85334        1.23832       61.86540
H        -13.30871        2.86993       61.28776
N        -10.39113        2.15942       63.03868
C         -8.94998        2.41178       62.87035
C         -8.64485        3.31650       61.66670
O         -7.95516        4.30480       61.88495
C         -8.19131        1.04592       62.87348
C         -6.67379        1.10321       62.77869
C         -5.90692        1.88187       63.66545
C         -6.00443        0.34483       61.79807
C         -4.51518        1.96654       63.51620
C         -4.61296        0.42588       61.65733
C         -3.87178        1.25803       62.49966
H        -10.70770        1.18151       63.08810
H         -8.59500        2.96685       63.76942
H         -8.58955        0.42231       62.04684
H         -8.43639        0.53908       63.83149
H         -6.38350        2.43829       64.45915
H         -6.56156       -0.31199       61.14186
H         -3.93131        2.58986       64.18153
H         -4.11058       -0.14879       60.88837
H         -2.79860        1.34934       62.37506
N         -9.15295        3.13632       60.40158
C         -8.91043        4.07655       59.30023
C         -9.37345        5.50461       59.56031
O         -8.96656        6.40864       58.84227
C         -9.71878        3.50953       58.12537
C        -10.72608        2.57322       58.78769
C         -9.96577        2.01877       59.97460
H         -7.81949        4.09357       59.08061
H        -10.22677        4.28549       57.50731
H         -9.03676        2.91540       57.48885
H        -11.55837        3.18731       59.19549
H        -11.16358        1.79540       58.12376
H        -10.70100        1.64170       60.70853
H         -9.27793        1.20887       59.65609
N        -10.29564        5.74849       60.51583
C        -10.87822        7.03774       60.83839
C         -9.93463        7.72612       61.82149
O         -9.53216        8.86040       61.60361
C        -12.32278        6.80699       61.40188
C        -13.19140        5.91237       60.47904
C        -14.61710        5.66711       60.90901
O        -15.09452        6.11803       62.08270
O        -15.37289        5.09156       60.14392
H        -10.64344        4.94133       61.02627
H        -10.97915        7.65676       59.91634
H        -12.81533        7.79560       61.53991
H        -12.26763        6.27979       62.36264
H        -12.73011        4.91811       60.36010
H        -13.21270        6.37464       59.48981
N         -9.43612        7.00893       62.86609
C         -8.40840        7.46156       63.76953
H         -7.52455        7.80239       63.19217
H         -8.79072        8.26616       64.42500
H         -8.08444        6.60155       64.40215
H         -9.73348        6.04612       62.98231
Ca       -17.37282        4.48700       61.73530
O        -18.01381        2.60519       60.12604
H        -17.61401        2.72258       59.23022
H        -18.84553        2.09068       60.00006
O        -19.64688        4.99938       63.08270
H        -20.59586        4.80550       62.95552
H        -19.73594        5.64614       63.80239
O        -18.34988        2.26308       63.14372
H        -19.08410        1.61160       63.20299
H        -17.63503        1.70757       62.76239

Ca 1.0



