%chk=holoCaM-CaMKII.loop1.water2.frame23.chk
%nprocshared=20
%mem=10GB
%nosave
#b3lyp/svp scf=(tight,noincore,xqc) Test 
#IOP(5/87=12) Density=Current Pop=(MK,readradii) iop(6/33=2) iop(6/42=6)

holoCaM-CaMKII.loop1.water2.frame23 

   0  1 
C         34.44990       45.83579       17.30467
C         34.28031       44.59036       16.48464
O         34.11090       44.70325       15.28409
H         35.32769       46.40396       16.92972
H         33.54072       46.46485       17.22218
H         34.62327       45.59934       18.37614
N         34.35542       43.36702       17.07542
C         34.29808       42.08198       16.37829
C         32.89524       41.79070       15.80003
O         32.14943       41.02696       16.39789
C         34.74429       40.99289       17.38948
C         35.01956       39.64754       16.79510
O         35.36748       38.64333       17.61776
O         34.97843       39.46030       15.58995
H         34.53753       43.35462       18.09185
H         35.06341       42.07613       15.57339
H         33.98124       40.89561       18.19154
H         35.70127       41.30496       17.86453
N         32.47850       42.35109       14.62336
C         31.14366       42.15981       14.03993
C         30.78600       40.71510       13.70618
O         29.60740       40.43992       13.52770
C         30.98224       42.97717       12.72533
C         31.96881       42.52335       11.61990
C         31.70587       43.18643       10.26629
C         32.76834       42.81108        9.20998
N         32.83453       41.37027        8.94581
H         33.12736       42.96953       14.13098
H         30.40648       42.52850       14.78669
H         31.13119       44.05925       12.92970
H         29.94144       42.84164       12.35651
H         31.88262       41.43106       11.47166
H         33.00027       42.76166       11.92820
H         31.72510       44.29014       10.39125
H         30.69747       42.88940        9.90377
H         33.76901       43.16871        9.54089
H         32.51354       43.33799        8.26441
H         31.89402       41.00353        8.67354
H         33.50395       41.20003        8.16063
H         33.19485       40.85577        9.78033
N         31.74804       39.78389       13.46994
C         31.46716       38.42973       12.98375
C         31.89077       37.35658       13.98093
O         31.64006       36.18778       13.72161
C         32.09329       38.21379       11.57850
C         33.58876       38.39016       11.50819
O         34.27595       38.76895       12.59724
O         34.17846       38.18414       10.45996
H         32.72166       40.07780       13.60123
H         30.37154       38.29066       12.85610
H         31.63223       38.92848       10.86316
H         31.84374       37.18564       11.23513
N         32.48146       37.67649       15.16525
C         32.76998       36.71758       16.21349
C         33.73652       35.62586       15.81536
O         33.37832       34.46602       15.96443
H         32.67892       38.65833       15.38468
H         31.81365       36.26675       16.55899
H         33.20452       37.26013       17.07922
N         34.99428       35.91087       15.36232
C         36.01163       34.87427       15.13867
C         37.21291       35.02609       16.06877
O         38.00278       34.09584       16.14066
C         36.42209       34.78164       13.65580
C         37.04836       36.01659       13.07581
O         37.29683       37.10042       13.82759
O         37.23552       36.07523       11.87118
H         35.23634       36.89916       15.20937
H         35.57489       33.88427       15.39270
H         35.49371       34.57952       13.07693
H         37.11523       33.92796       13.50163
N         37.39887       36.13917       16.83687
C         38.41471       36.25794       17.86876
C         39.40500       37.37551       17.62928
O         40.16253       37.65478       18.54937
H         36.76917       36.93840       16.73707
H         38.98161       35.31418       18.01242
H         37.87759       36.47136       18.81844
N         39.51158       38.02843       16.43452
C         40.48881       39.09002       16.19503
C         39.82475       40.35235       15.66556
O         38.63194       40.34828       15.38317
C         41.59949       38.59443       15.23061
C         42.45720       37.48707       15.86332
O         41.06352       38.17515       14.00028
H         38.91496       37.73661       15.64808
H         40.98324       39.38123       17.14800
H         42.30105       39.42937       15.02130
H         40.68995       37.26194       14.11552
H         42.93433       37.86280       16.79368
H         41.84443       36.59484       16.11051
H         43.25894       37.18374       15.15696
N         40.56333       41.49244       15.53610
C         40.05225       42.76265       15.03361
C         40.87949       43.15482       13.81548
O         42.09132       43.28992       13.92698
C         40.10971       43.84863       16.15084
C         39.23200       43.41541       17.35754
C         39.64541       45.21659       15.60801
C         39.30602       44.36780       18.55372
H         41.55408       41.46785       15.82607
H         38.98593       42.66295       14.73325
H         41.16489       43.94843       16.48993
H         39.57274       42.42269       17.72036
H         38.16978       43.31940       17.03892
H         40.27245       45.53515       14.75296
H         38.58564       45.16887       15.28227
H         39.74932       46.01310       16.37045
H         38.90359       45.37059       18.30699
H         38.69156       43.96230       19.38500
H         40.35585       44.46445       18.90247
N         40.27429       43.35561       12.61391
C         40.97296       43.74176       11.39309
C         41.11093       45.24983       11.32889
O         40.62723       45.94194       12.21143
C         40.20613       43.21958       10.13959
C         40.10063       41.68989       10.11830
O         38.93464       43.81027       10.03971
H         39.25654       43.28189       12.57649
H         41.98984       43.29061       11.38579
H         40.75563       43.49688        9.21653
H         38.28878       43.26839       10.55930
H         41.10926       41.23345       10.05133
H         39.59642       41.33472       11.03716
H         39.49832       41.36669        9.24203
N         41.75153       45.83456       10.28225
C         41.82831       47.28113       10.10832
C         40.41502       47.83957        9.96975
O         40.06338       48.78221       10.66418
C         42.68233       47.62052        8.86036
C         42.95578       49.12385        8.75134
O         43.91960       46.95789        8.95270
H         42.17534       45.22439        9.56689
H         42.34011       47.72700       10.99162
H         42.13037       47.27744        7.95157
H         44.14953       46.63323        8.04245
H         43.56938       49.32806        7.84830
H         42.01186       49.70111        8.67584
H         43.52293       49.47180        9.64276
N         39.53941       47.23979        9.11230
C         38.15630       47.65948        8.89684
C         37.35437       47.71635       10.18589
O         36.77443       48.75632       10.46649
C         37.44365       46.69025        7.92055
C         38.02046       46.66985        6.48896
C         38.02559       48.03606        5.77809
C         36.63538       48.69202        5.72270
N         36.68241       49.95719        4.99367
H         39.88016       46.41527        8.59640
H         38.14653       48.68124        8.46246
H         36.36926       46.96283        7.85633
H         37.48064       45.65582        8.32854
H         37.40941       45.95925        5.89057
H         39.05999       46.27947        6.49606
H         38.39820       47.87933        4.74245
H         38.73674       48.72156        6.28534
H         36.27270       48.89859        6.75246
H         35.91582       48.00472        5.22555
H         36.96674       49.78886        4.00184
H         35.73160       50.39223        5.00699
H         37.35860       50.61071        5.45201
N         37.26423       46.63574       11.00948
C         36.47196       46.61669       12.23849
C         36.88017       47.77041       13.13872
O         36.03263       48.60038       13.43921
C         36.60457       45.24199       12.94453
C         35.89981       44.12864       12.13437
C         36.09080       42.74743       12.71261
O         37.20219       42.26666       12.82125
O         35.03340       41.99187       13.04387
H         37.79862       45.79903       10.75175
H         35.39716       46.76398       11.98540
H         36.13605       45.28844       13.94790
H         37.68170       45.01011       13.08038
H         36.27819       44.11192       11.09540
H         34.81403       44.35969       12.08650
N         38.16632       47.92219       13.55462
C         38.62601       49.06492       14.32016
H         39.41410       49.59437       13.74286
H         37.81357       49.79333       14.52934
H         39.05254       48.72290       15.28452
H         38.86312       47.21677       13.29002
Ca        36.48346       38.89755       12.82447
O         36.67592       40.40455       10.22729
H         36.41309       39.55791        9.78663
H         36.46190       41.10787        9.56475
O         39.27268       39.01995       11.84661
H         39.19095       38.06420       12.08590
H         39.19791       39.50474       12.70754

Ca 1.0



