%chk=holoCaM-CaMKII.loop1.water2.frame243.chk
%nprocshared=20
%mem=10GB
%nosave
#b3lyp/svp scf=(tight,noincore,xqc) Test 
#IOP(5/87=12) Density=Current Pop=(MK,readradii) iop(6/33=2) iop(6/42=6)

holoCaM-CaMKII.loop1.water2.frame243 

   0  1 
C        100.15758      110.20103       44.93138
C        101.09414      111.37073       44.91096
O        101.48926      111.79021       43.83324
H         99.23608      110.45757       44.36761
H        100.64728      109.32612       44.45569
H         99.87278      109.92874       45.96938
N        101.46769      111.98109       46.06836
C        102.34326      113.14253       46.07936
C        103.78319      112.70161       45.82278
O        104.36424      112.05030       46.67995
C        102.17769      113.87731       47.42823
C        102.83171      115.21946       47.49386
O        103.44165      115.66908       46.54242
O        102.70994      115.95389       48.61262
H        101.05909      111.64871       46.95603
H        101.98996      113.83841       45.28535
H        102.55637      113.24023       48.25654
H        101.09305      114.05677       47.59493
N        104.39540      112.95903       44.63014
C        105.74090      112.47062       44.30579
C        106.85503      113.28437       44.96512
O        108.00835      112.89676       44.82487
C        105.97277      112.48379       42.77428
C        104.97036      111.70418       41.88816
C        104.91758      110.18426       42.12055
C        103.96642      109.75867       43.25328
N        104.04459      108.32008       43.48872
H        103.84143      113.42729       43.90004
H        105.85300      111.42771       44.65676
H        106.98656      112.07783       42.56238
H        105.96993      113.53730       42.42413
H        105.33784      111.85711       40.84887
H        103.95033      112.12906       41.93125
H        105.95036      109.80478       42.27086
H        104.51150      109.70998       41.19929
H        102.93093      110.02242       42.95556
H        104.17368      110.26917       44.20489
H        103.79266      107.79459       42.62112
H        105.01355      108.06751       43.79161
H        103.37678      108.06447       44.25199
N        106.60685      114.45599       45.61748
C        107.66690      115.37732       46.03971
C        107.40515      116.08576       47.37389
O        108.26469      116.84474       47.79882
C        107.90590      116.40691       44.91247
C        106.68441      117.22032       44.53213
O        105.49719      117.03001       45.16046
O        106.77793      118.03556       43.63080
H        105.63715      114.78185       45.63040
H        108.62015      114.81574       46.17023
H        108.24314      115.85101       44.00853
H        108.73461      117.08848       45.20591
N        106.27192      115.88325       48.10138
C        106.02212      116.48933       49.40043
C        105.86730      117.99898       49.39008
O        106.56738      118.66071       50.14329
H        105.56874      115.21760       47.76570
H        106.83114      116.19376       50.10312
H        105.07197      116.07642       49.79911
N        104.92400      118.60829       48.61634
C        104.58061      120.02901       48.72229
C        103.08518      120.21635       49.00539
O        102.59835      121.33460       48.90714
C        105.08295      120.81047       47.48856
C        104.58276      120.32156       46.16788
O        105.37133      119.93324       45.32316
O        103.27703      120.37267       45.87728
H        104.38992      118.03354       47.94625
H        105.11078      120.51070       49.57327
H        106.19299      120.75154       47.48337
H        104.80821      121.88328       47.59046
N        102.30969      119.17748       49.44107
C        100.89493      119.29095       49.76107
C         99.98815      119.33822       48.54697
O         98.78150      119.34214       48.74853
H        102.74584      118.26696       49.63266
H        100.71887      120.15905       50.43430
H        100.59593      118.37593       50.31835
N        100.47001      119.36188       47.26815
C         99.61618      119.33160       46.08775
C        100.08670      118.22184       45.09482
O        101.23555      118.66247       44.41171
C         99.54515      120.73098       45.40936
C         98.71501      121.72491       46.21971
O        100.82947      121.26989       45.23544
H        101.48070      119.39961       47.11281
H         98.57875      119.06710       46.39121
H         99.01577      120.64054       44.43042
H        101.07166      121.17239       44.28074
H         97.67191      121.35489       46.31980
H         99.14867      121.88313       47.22812
H         98.68372      122.69976       45.68607
N         99.01765      118.01844       44.10405
C         99.15918      116.87553       43.18659
C         98.75512      117.38839       41.81443
O         97.67776      117.95522       41.68254
C         98.28243      115.65512       43.63017
C         98.75226      115.11429       45.00773
C         98.33973      114.53309       42.56914
C         97.83896      114.03267       45.59302
H         98.05529      118.03920       44.51671
H        100.21112      116.53081       43.14575
H         97.22637      115.99528       43.71463
H         98.76840      115.93896       45.74876
H         99.78382      114.71126       44.91733
H         97.67500      113.68691       42.82958
H         97.98744      114.89944       41.58394
H         99.37652      114.15203       42.46070
H         98.23231      113.71446       46.58161
H         96.81431      114.43776       45.73479
H         97.79196      113.13019       44.95230
N         99.56904      117.20069       40.73855
C         99.27383      117.68720       39.39537
C         98.75285      116.55357       38.53784
O         98.68170      115.42897       39.00939
C        100.56385      118.27333       38.75013
C        101.15777      119.41743       39.56681
O        101.52740      117.25864       38.62533
H        100.41547      116.63232       40.86186
H         98.48235      118.46839       39.43029
H        100.30860      118.66465       37.73949
H        102.18263      117.55127       37.93961
H        102.07138      119.80000       39.06137
H        100.42888      120.24637       39.66688
H        101.44553      119.05031       40.56966
N         98.38269      116.76924       37.24875
C         98.02583      115.68409       36.33990
C         99.20259      114.73570       36.18631
O         99.03007      113.53862       36.35868
C         97.59119      116.20885       34.94570
C         96.23229      116.92464       34.99813
O         98.58289      117.01486       34.35085
H         98.40140      117.73779       36.89557
H         97.16445      115.10973       36.75210
H         97.43544      115.33109       34.28046
H         98.46313      117.95088       34.65914
H         95.93949      117.24497       33.97584
H         95.45502      116.22674       35.37815
H         96.26765      117.81424       35.66014
N        100.43876      115.22129       35.88066
C        101.61024      114.37810       35.66153
C        101.89083      113.46826       36.85217
O        102.32629      112.34517       36.63671
C        102.81769      115.27518       35.30274
C        104.05212      114.50597       34.80871
C        105.15126      115.49781       34.38285
C        106.42086      114.82499       33.83453
N        106.17788      114.11180       32.57837
H        100.54687      116.24307       35.79080
H        101.39413      113.73478       34.77987
H        103.08549      115.91401       36.17262
H        102.49905      115.94038       34.46820
H        103.74740      113.88551       33.94053
H        104.44009      113.84289       35.61130
H        105.43850      116.10278       35.27063
H        104.75745      116.19177       33.60731
H        106.84419      114.13022       34.59235
H        107.17282      115.62345       33.64416
H        107.08782      113.74769       32.21409
H        105.53888      113.29980       32.72729
H        105.77075      114.76207       31.86698
N        101.64834      113.87032       38.13292
C        101.85122      112.99787       39.28622
C        100.76583      111.93136       39.32599
O        101.08530      110.75885       39.19192
C        101.90619      113.82245       40.59391
C        103.13282      114.76044       40.57820
C        103.28325      115.56480       41.83654
O        102.42196      116.35479       42.17277
O        104.40630      115.47138       42.56936
H        101.30291      114.82599       38.29140
H        102.84125      112.49668       39.19149
H        101.98836      113.13372       41.45973
H        100.97338      114.40795       40.71686
H        103.06163      115.46584       39.72664
H        104.05155      114.15224       40.43956
N         99.45704      112.27322       39.49504
C         98.35839      111.32771       39.48886
H         97.64684      111.60360       38.68073
H         98.69494      110.28497       39.31503
H         97.82245      111.37406       40.46031
H         99.21491      113.25748       39.63388
Ca       103.33618      117.75550       44.80639
O        104.74884      118.31991       41.30218
H        105.61325      118.73590       41.06131
H        104.74804      118.30432       42.29161
O        102.93022      120.22216       42.66231
H        102.60106      119.30428       42.49610
H        102.27535      120.80209       42.20060

Ca 1.0



