%chk=holoCaM.loop4.water3.frame224.chk
%nprocshared=20
%mem=10GB
%nosave
#b3lyp/svp scf=(tight,noincore,xqc) Test 
#IOP(5/87=12) Density=Current Pop=(MK,readradii) iop(6/33=2) iop(6/42=6)

holoCaM.loop4.water3.frame224 

   -3  1 
C         39.81174       57.98683       -2.11614
C         39.06058       56.70103       -1.95826
O         37.85154       56.77072       -1.79864
H         40.89230       57.81251       -2.28685
H         39.39755       58.53281       -2.99268
H         39.67350       58.61731       -1.21340
N         39.69211       55.48578       -2.00175
C         38.94553       54.22943       -1.96622
C         39.86382       53.00146       -1.89302
O         40.72772       52.86298       -2.74807
C         38.09244       54.11440       -3.25432
C         37.12453       52.97589       -3.19723
O         36.45699       52.69709       -4.17935
O         36.93476       52.30373       -2.04894
H         40.71955       55.46156       -2.08466
H         38.28583       54.24889       -1.07299
H         38.77277       53.98766       -4.12405
H         37.48614       55.02298       -3.43729
N         39.68548       52.04083       -0.92977
C         40.47885       50.81586       -0.82555
C         39.65016       49.52178       -0.98969
O         40.27650       48.47986       -1.12298
C         41.26854       50.78776        0.52728
C         40.32379       50.65551        1.75906
C         42.17593       52.02855        0.64068
C         41.05629       50.51246        3.09657
H         38.95565       52.18068       -0.23685
H         41.22410       50.80562       -1.65058
H         41.92854       49.89186        0.51061
H         39.70258       49.74322        1.64035
H         39.64218       51.52581        1.83058
H         41.57260       52.95910        0.70694
H         42.82899       51.96959        1.53491
H         42.84375       52.09692       -0.24323
H         40.31311       50.36128        3.90861
H         41.73672       49.63515        3.07423
H         41.63452       51.42527        3.34527
N         38.27847       49.47741       -0.91353
C         37.50337       48.22044       -0.94157
C         36.30601       48.22102       -1.91137
O         35.64332       47.19573       -1.99304
C         37.05726       47.85091        0.49659
C         36.37547       48.99338        1.18107
O         35.27964       49.55082        0.64856
O         36.90034       49.51667        2.15141
H         37.76746       50.34447       -0.70789
H         38.14867       47.37949       -1.27675
H         37.96962       47.60038        1.08223
H         36.40646       46.95026        0.49265
N         35.98638       49.28154       -2.70716
C         34.93195       49.24919       -3.72029
C         33.48930       49.17337       -3.22532
O         32.61444       49.09447       -4.07623
H         36.57791       50.11326       -2.67940
H         35.12452       48.38593       -4.39311
H         35.00591       50.17069       -4.33802
N         33.14188       49.20131       -1.90664
C         31.75490       49.10417       -1.43822
C         30.85417       50.21174       -1.98492
O         29.74338       49.90657       -2.39615
C         31.65713       48.98548        0.10510
C         32.20327       50.11677        0.93614
O         32.75077       51.07886        0.43186
O         32.10760       50.04651        2.27665
H         33.88665       49.27261       -1.21040
H         31.33718       48.13985       -1.80801
H         32.19701       48.06517        0.41627
H         30.58561       48.85537        0.37204
N         31.28919       51.49827       -2.08527
C         30.51483       52.58016       -2.67809
C         30.43559       53.82351       -1.81090
O         29.89814       54.81011       -2.29422
H         32.24800       51.70677       -1.80090
H         29.48571       52.25642       -2.94412
H         31.02964       52.87735       -3.61681
N         30.95082       53.87756       -0.54704
C         30.95674       55.08984        0.27062
C         32.38201       55.47266        0.63032
O         33.30095       54.73247        0.30946
C         30.12666       54.86064        1.54955
C         28.64954       54.60086        1.22356
C         27.84186       54.40577        2.48060
N         27.16155       53.25549        2.69468
O         27.79215       55.30082        3.31158
H         31.36672       53.03432       -0.13349
H         30.52316       55.94792       -0.28802
H         30.18321       55.76248        2.19633
H         30.54643       53.99952        2.11697
H         28.56410       53.70272        0.57510
H         28.23607       55.47132        0.66961
H         27.18335       52.49031        2.00502
H         26.60554       53.13003        3.55348
N         32.63401       56.62924        1.31147
C         33.96975       57.05430        1.71990
C         34.04848       57.02145        3.23702
O         33.05374       57.25940        3.90881
C         34.32154       58.45461        1.14221
C         35.75224       58.88359        1.52394
C         34.20252       58.46573       -0.39037
H         31.84062       57.23530        1.57078
H         34.72997       56.34219        1.33038
H         33.60789       59.20393        1.54963
H         35.86829       58.95852        2.62359
H         36.49883       58.15771        1.13222
H         35.98216       59.88511        1.10200
H         34.43834       59.47767       -0.78500
H         34.90752       57.73846       -0.84547
H         33.17004       58.21274       -0.70860
N         35.21597       56.66335        3.83222
C         35.40283       56.46171        5.25992
C         36.47106       57.41424        5.77257
O         37.08574       58.11983        4.98213
C         35.80735       54.97846        5.45965
C         35.93641       54.51908        6.88644
N         34.87198       54.54357        7.71994
O         37.00952       54.09419        7.28788
H         36.02460       56.50323        3.22781
H         34.45361       56.66683        5.79921
H         36.77382       54.80360        4.93944
H         35.03879       54.33430        4.98128
H         33.95545       54.88179        7.39400
H         34.96433       54.21524        8.69247
N         36.73511       57.50109        7.10375
C         37.76505       58.37303        7.64899
C         39.13522       57.94714        7.15696
O         39.90485       58.78734        6.71855
C         37.75140       58.32759        9.18923
C         38.69627       59.36444        9.74440
C         38.42891       60.73015        9.54378
C         39.85225       58.98561       10.44373
C         39.30444       61.70096       10.03040
C         40.73153       59.96058       10.92612
C         40.45929       61.32215       10.72010
O         41.29809       62.27288       11.17705
H         36.17147       56.93965        7.75765
H         37.54786       59.41605        7.33033
H         38.02875       57.30351        9.52572
H         36.73199       58.54355        9.57575
H         37.54053       61.04425        9.00948
H         40.08067       57.93892       10.60215
H         39.08459       62.74850        9.86678
H         41.62513       59.65689       11.45572
H         42.11030       62.05513       11.65533
N         39.49483       56.63614        7.21492
C         40.77870       56.11465        6.76306
C         41.00955       56.45021        5.29077
O         42.09306       56.89276        4.93745
C         40.80360       54.57772        6.99409
C         42.19572       53.94086        6.85123
C         43.13877       54.44057        7.91335
O         42.84596       54.25839        9.21659
O         44.17355       55.00730        7.60248
H         38.80361       55.96964        7.59070
H         41.57974       56.56862        7.38549
H         40.09286       54.08538        6.29352
H         40.45355       54.35347        8.02691
H         42.60429       54.13388        5.83672
H         42.10058       52.84054        6.98137
N         40.01145       56.25901        4.38093
C         40.15522       56.47083        2.93581
C         40.33525       57.93425        2.53668
O         40.61501       58.18203        1.37131
C         38.90026       55.94011        2.20851
C         38.68275       54.44163        2.46140
C         37.35285       53.95961        1.96424
O         37.30512       53.03405        1.01307
O         36.31364       54.32790        2.47439
H         39.11289       55.91020        4.74475
H         41.04153       55.89383        2.58994
H         38.97747       56.09977        1.10937
H         38.04186       56.52721        2.57572
H         38.71476       54.18394        3.53754
H         39.50878       53.89041        1.96544
N         40.14343       58.95820        3.41159
C         40.26354       60.34722        3.02106
H         41.29412       60.55905        2.66668
H         39.53649       60.57935        2.21314
H         40.04287       61.00496        3.88945
H         39.86955       58.75877        4.37569
Ca        35.51910       51.76334        0.64518
O         34.20324       52.93578       -2.33151
H         34.24214       52.12351       -2.89577
H         33.66082       53.57815       -2.85280
O         35.59227       54.93454       -1.11206
H         35.54774       55.55241       -1.88393
H         36.15348       55.39339       -0.44000
O         34.58075       52.08572        3.53409
H         33.76420       51.60318        3.81571
H         35.29124       51.39635        3.53616

Ca 1.0



