%chk=holoCaM-CaMKII.loop3.water2.frame171.chk
%nprocshared=20
%mem=10GB
%nosave
#b3lyp/svp scf=(tight,noincore,xqc) Test 
#IOP(5/87=12) Density=Current Pop=(MK,readradii) iop(6/33=2) iop(6/42=6)

holoCaM-CaMKII.loop3.water2.frame171 

   0  1 
C         95.66325       48.44652       19.48274
C         94.73487       47.64077       20.33956
O         93.82142       48.20397       20.92405
H         96.70218       48.34354       19.86042
H         95.61575       48.07685       18.43687
H         95.38101       49.52093       19.49621
N         94.92436       46.29838       20.46373
C         94.07588       45.42835       21.26484
C         94.89358       44.90038       22.42134
O         95.19847       43.71861       22.49350
C         93.45160       44.35649       20.35025
C         92.53371       43.37990       21.04837
O         92.75619       42.18532       20.94239
O         91.44122       43.77889       21.73820
H         95.72170       45.86721       19.96976
H         93.25078       46.00059       21.70766
H         94.26242       43.79233       19.83829
H         92.85567       44.87539       19.56973
N         95.28358       45.78294       23.38345
C         96.10600       45.43327       24.53741
C         95.40464       44.49556       25.52134
O         96.06502       44.08228       26.46504
C         96.51278       46.71343       25.30898
C         97.32852       47.70868       24.46268
C         97.63010       48.97745       25.27470
C         98.45223       50.02197       24.50014
N         97.74464       50.53806       23.32533
H         94.98924       46.76365       23.26405
H         97.03087       44.93701       24.16702
H         97.12916       46.43436       26.19237
H         95.58726       47.21321       25.67358
H         96.75488       47.99456       23.56157
H         98.27891       47.23034       24.14011
H         98.20505       48.69106       26.18234
H         96.67524       49.44454       25.60291
H         99.42808       49.58681       24.19187
H         98.65779       50.86984       25.19092
H         97.63043       49.79395       22.60148
H         96.80946       50.91670       23.60152
H         98.30817       51.31137       22.90413
N         94.09038       44.13063       25.39961
C         93.41418       43.25519       26.36070
C         92.99285       41.92592       25.74553
O         92.51572       41.07332       26.48210
C         92.22312       43.97848       27.02861
C         91.11121       44.34921       26.08353
O         89.88590       43.81706       26.24887
O         91.29616       45.16072       25.19275
H         93.54239       44.48648       24.60718
H         94.11542       42.98927       27.18108
H         92.58540       44.89938       27.53485
H         91.80589       43.30900       27.81229
N         93.17581       41.65247       24.42336
C         92.90830       40.35815       23.82852
C         91.46022       39.95275       23.90623
O         91.18826       38.87511       24.41688
H         93.56946       42.36581       23.79999
H         93.54896       39.59045       24.31626
H         93.19184       40.39079       22.75596
N         90.47996       40.74273       23.37884
C         89.08364       40.31712       23.29743
C         88.58844       40.21974       21.85843
O         87.49587       39.70021       21.67391
C         88.16174       41.20255       24.16503
C         88.04525       42.65368       23.75835
N         87.22924       43.47562       24.45659
O         88.67034       43.09591       22.80818
H         90.74787       41.66112       23.00177
H         88.99297       39.28787       23.70837
H         88.52320       41.16155       25.21524
H         87.13959       40.76471       24.14094
H         86.68802       43.12121       25.25881
H         87.13392       44.46683       24.19370
N         89.31256       40.67881       20.79122
C         88.88609       40.49999       19.41251
C         88.50110       41.78676       18.71702
O         88.13119       41.69733       17.55563
H         90.20953       41.16027       20.93562
H         87.99720       39.83699       19.35299
H         89.70599       40.00096       18.85199
N         88.53115       43.00806       19.33349
C         88.04857       44.22447       18.66955
C         88.42701       45.49789       19.41401
O         88.88939       45.43707       20.54264
C         86.51564       44.12983       18.44613
C         85.76725       43.83575       19.73326
C         85.61637       44.81632       20.72817
C         85.21979       42.55723       19.95077
C         84.93725       44.52244       21.91590
C         84.55132       42.26322       21.14278
C         84.40812       43.24649       22.13037
O         83.76592       42.97811       23.28540
H         88.89690       43.06946       20.29083
H         88.57300       44.30272       17.69134
H         86.33085       43.29942       17.73562
H         86.10637       45.03877       17.95583
H         86.01499       45.81054       20.58342
H         85.32403       41.77886       19.20520
H         84.82259       45.28632       22.67370
H         84.14720       41.27057       21.29790
H         83.38906       42.10688       23.47497
N         88.33270       46.70037       18.77000
C         88.81110       47.96022       19.34229
C         87.76558       49.06431       19.24253
O         86.74276       48.88719       18.59639
C         90.15346       48.38230       18.66364
C         90.00790       48.52652       17.12280
C         91.25336       47.37112       19.03328
C         91.27616       49.01491       16.42023
H         87.99231       46.70307       17.79727
H         89.00798       47.82718       20.42917
H         90.46462       49.36371       19.08413
H         89.20196       49.25873       16.90348
H         89.73034       47.55280       16.66649
H         91.02698       46.36427       18.62504
H         92.24373       47.69385       18.65781
H         91.34107       47.29878       20.13584
H         92.10491       48.28542       16.52543
H         91.07278       49.12330       15.33371
H         91.59088       49.99850       16.82622
N         87.96530       50.23339       19.92046
C         87.02681       51.35186       19.94154
C         87.73129       52.67118       19.62066
O         88.92885       52.67852       19.37217
C         86.38027       51.41234       21.33755
O         87.35157       51.65412       22.31877
H         88.80143       50.30904       20.51431
H         86.21053       51.19488       19.20313
H         85.87846       50.44114       21.54348
H         85.60717       52.21165       21.36307
H         86.85782       51.86921       23.15216
N         87.03088       53.84355       19.65391
C         87.62756       55.16589       19.46789
C         88.71033       55.42813       20.49598
O         89.78662       55.86994       20.12124
C         86.55297       56.25303       19.59630
H         86.02080       53.79780       19.85365
H         88.05947       55.24705       18.44532
H         87.00469       57.25704       19.44087
H         85.76646       56.10276       18.82715
H         86.08048       56.22780       20.60200
N         88.49245       55.16376       21.81504
C         89.49707       55.36543       22.85366
C         90.76104       54.57493       22.56567
O         91.83333       55.16316       22.53921
C         88.93528       54.94550       24.21972
H         87.57300       54.78157       22.08718
H         89.74922       56.44789       22.91483
H         89.69108       55.11783       25.01608
H         88.03188       55.54484       24.46082
H         88.65541       53.86978       24.22273
N         90.70772       53.22983       22.34972
C         91.90147       52.40645       22.15323
C         92.67723       52.75162       20.88410
O         93.77863       52.24082       20.73055
C         91.52832       50.91366       22.08216
C         90.84264       50.38621       23.35260
C         90.46603       48.95017       23.15311
O         89.30176       48.59737       23.23562
O         91.41724       48.05670       22.83625
H         89.78119       52.78126       22.36296
H         92.57148       52.56693       23.02745
H         92.45184       50.31590       21.91854
H         90.86565       50.76283       21.20630
H         89.92526       50.96344       23.58889
H         91.54011       50.47016       24.21297
N         92.16768       53.56912       19.92003
C         92.87064       53.91007       18.69992
H         93.87762       53.44666       18.64377
H         92.27643       53.56657       17.82721
H         92.98812       55.01242       18.64155
H         91.22704       53.95754       20.02881
Ca        91.00201       45.88789       22.41038
O         87.03182       46.89834       22.94413
H         86.69082       47.56201       22.29337
H         86.44578       47.00176       23.73547
O         88.74053       46.87405       25.67888
H         88.30686       47.74956       25.83934
H         88.27786       46.25097       26.29343

Ca 1.0



