%chk=holoCaM-CaMKII.loop4.water2.frame245.chk
%nprocshared=20
%mem=10GB
%nosave
#b3lyp/svp scf=(tight,noincore,xqc) Test 
#IOP(5/87=12) Density=Current Pop=(MK,readradii) iop(6/33=2) iop(6/42=6)

holoCaM-CaMKII.loop4.water2.frame245 

   -3  1 
C        100.02840      100.71445       65.09150
C         99.12024       99.63504       65.59638
O         98.21824       99.93616       66.36500
H        100.79895      100.30667       64.40398
H         99.42658      101.46541       64.53640
H        100.53333      101.20807       65.94635
N         99.26820       98.35070       65.16915
C         98.34391       97.29634       65.55595
C         98.49548       96.91732       67.03020
O         99.58962       97.02760       67.56543
C         98.51051       96.08145       64.62613
C         97.37942       95.14191       64.84499
O         97.58387       93.99627       65.20015
O         96.12206       95.59755       64.71756
H        100.00771       98.13961       64.48081
H         97.31872       97.69701       65.38047
H         99.49203       95.58516       64.79293
H         98.45633       96.41603       63.56751
N         97.40940       96.50320       67.75177
C         97.42683       96.22385       69.18852
C         96.97549       94.78772       69.46541
O         97.78325       94.01825       69.96796
C         96.55896       97.28699       69.93992
C         97.15757       98.70188       69.69905
C         96.46268       96.97319       71.44591
C         96.36444       99.85312       70.32041
H         96.51376       96.42943       67.26166
H         98.46545       96.31825       69.57888
H         95.52641       97.26679       69.53294
H         97.19092       98.89857       68.60777
H         98.19798       98.73895       70.09025
H         97.46585       96.99645       71.91990
H         95.79811       97.69667       71.96026
H         96.00717       95.97472       71.61114
H         96.34974       99.78911       71.42649
H         96.84994      100.81527       70.05008
H         95.32566       99.86482       69.93492
N         95.69921       94.35977       69.21047
C         95.23177       93.00590       69.53883
C         95.89080       91.91406       68.69221
O         95.64807       90.74449       68.95575
C         93.68227       92.92962       69.49054
C         93.06842       93.11822       68.13073
O         91.88698       93.40573       68.03518
O         93.76181       92.81181       67.02408
H         95.02167       95.03727       68.84203
H         95.49991       92.81688       70.60257
H         93.29987       93.73432       70.15674
H         93.31435       91.96617       69.90465
N         96.75784       92.21674       67.68421
C         97.50165       91.22691       66.92999
C         96.65430       90.39507       66.00139
O         96.70993       89.17756       66.09785
H         96.96612       93.19853       67.47000
H         98.07821       90.58372       67.63027
H         98.24107       91.75150       66.28838
N         95.91469       90.98527       65.01626
C         95.26617       90.22426       63.94672
C         95.84660       90.56184       62.57047
O         95.51011       89.86429       61.62261
C         93.72480       90.36398       63.99499
C         93.15950       91.74692       63.80128
O         93.87932       92.71109       63.62413
O         91.82514       91.92235       63.83004
H         95.86166       92.01273       65.00000
H         95.47622       89.14228       64.09012
H         93.37384       89.99400       64.98157
H         93.28721       89.70978       63.20979
N         96.71453       91.60079       62.37088
C         97.33009       91.91155       61.08984
C         96.73670       93.14851       60.44446
O         97.27869       93.59646       59.44744
H         96.95451       92.23370       63.14507
H         97.22254       91.07861       60.36216
H         98.41900       92.05633       61.26437
N         95.57738       93.70055       60.91082
C         94.89028       94.82370       60.28279
C         94.66737       95.93498       61.30291
O         94.81410       95.70095       62.48626
C         93.57613       94.27078       59.69270
C         92.70017       95.30167       58.97630
C         91.52435       94.62286       58.32118
N         91.34509       94.69559       56.98151
O         90.72658       93.99847       59.00533
H         95.10996       93.26653       61.70839
H         95.51226       95.23484       59.45883
H         92.98035       93.78762       60.49912
H         93.85785       93.48284       58.95732
H         93.30933       95.82499       58.20902
H         92.31572       96.04652       59.70408
H         92.00491       95.21768       56.38667
H         90.54323       94.22694       56.53478
N         94.37683       97.20273       60.88658
C         94.25620       98.35086       61.78587
C         92.89175       99.00176       61.59870
O         92.52991       99.31015       60.47455
C         95.41974       99.33915       61.49204
C         95.28484      100.64667       62.29052
C         96.76966       98.68303       61.84201
H         94.30622       97.38269       59.87585
H         94.35572       98.04821       62.84894
H         95.41679       99.60020       60.41051
H         95.27410      100.44476       63.38205
H         96.13554      101.32295       62.05876
H         94.35322      101.18247       62.01269
H         96.92949       97.75393       61.25647
H         97.60932       99.37414       61.61741
H         96.80710       98.42714       62.92393
N         92.10545       99.27763       62.68709
C         90.78755       99.90981       62.59682
C         90.80502      101.30207       63.22699
O         91.84706      101.74145       63.68125
C         89.68051       99.00008       63.19497
C         89.64427       98.88851       64.70472
N         90.60164       98.23659       65.39862
O         88.69630       99.36710       65.30926
H         92.47885       99.06890       63.61895
H         90.51857      100.04973       61.52812
H         89.72988       97.98775       62.74154
H         88.70455       99.42801       62.88162
H         91.38361       97.77283       64.92396
H         90.53323       98.16095       66.42445
N         89.66749      102.06024       63.25578
C         89.59542      103.43198       63.76465
C         90.01960      103.54981       65.21730
O         90.76304      104.46908       65.53270
C         88.15772      103.97559       63.61732
C         88.06358      105.43205       64.01653
C         88.77261      106.41206       63.29918
C         87.27027      105.82323       65.10795
C         88.69070      107.75726       63.66812
C         87.19085      107.17031       65.47602
C         87.90119      108.14208       64.75582
O         87.83249      109.44445       65.09781
H         88.80763      101.65177       62.86519
H         90.26563      104.06697       63.14483
H         87.47704      103.35300       64.24000
H         87.82701      103.88487       62.56029
H         89.38813      106.13695       62.45214
H         86.71737      105.08710       65.67797
H         89.24181      108.50123       63.10646
H         86.57766      107.45727       66.32083
H         87.29607      109.75396       65.84145
N         89.58007      102.66922       66.15827
C         89.98017      102.73896       67.56269
C         91.49430      102.73965       67.68286
O         92.04110      103.63802       68.30732
C         89.40218      101.55129       68.37057
C         87.86990      101.59893       68.48135
C         87.35485      100.44145       69.29060
O         87.74422      100.28181       70.57045
O         86.57159       99.64630       68.79615
H         88.96943      101.90006       65.84784
H         89.59704      103.68093       68.01657
H         89.81605      101.59150       69.40345
H         89.71903      100.58909       67.90905
H         87.40806      101.57218       67.47225
H         87.56403      102.54274       68.98200
N         92.23367      101.75897       67.09745
C         93.69042      101.68062       67.22066
C         94.38500      102.85589       66.54457
O         95.53456      103.12472       66.86479
C         94.22500      100.36549       66.61451
C         93.56284       99.13506       67.25816
C         93.97232       97.85406       66.61335
O         94.22430       96.79158       67.38678
O         93.92769       97.71877       65.40221
H         91.72352      101.04509       66.56003
H         93.93719      101.69046       68.30648
H         95.32823      100.30560       66.74714
H         94.00007      100.36890       65.52444
H         92.47119       99.18001       67.14129
H         93.76967       99.09530       68.34773
N         93.76686      103.57066       65.56471
C         94.38614      104.68731       64.88837
H         95.32234      104.36071       64.38966
H         93.69353      105.08512       64.11409
H         94.60430      105.49679       65.61558
H         92.82658      103.30338       65.26412
Ca        94.51893       94.43278       65.71155
O         91.66858       95.68008       62.80464
H         90.71473       95.69223       63.06910
H         91.85467       94.72998       62.59822
O         91.25673       95.20774       65.81433
H         91.65564       95.74112       66.54698
H         90.29622       95.14745       66.04681

Ca 1.0



