%chk=holoCaM.loop4.water3.frame192.chk
%nprocshared=20
%mem=10GB
%nosave
#b3lyp/svp scf=(tight,noincore,xqc) Test 
#IOP(5/87=12) Density=Current Pop=(MK,readradii) iop(6/33=2) iop(6/42=6)

holoCaM.loop4.water3.frame192 

   -3  1 
C         30.01553       68.37887       77.65874
C         31.29940       68.96389       78.15628
O         32.07905       68.21869       78.73142
H         29.37457       69.14713       77.18195
H         30.23940       67.58169       76.91774
H         29.46881       67.92889       78.51445
N         31.61439       70.27801       77.94472
C         32.87190       70.85098       78.40675
C         32.65676       72.19280       79.09316
O         32.00598       73.05883       78.52421
C         33.85991       71.01145       77.23802
C         35.27612       71.12317       77.75163
O         36.19443       71.31446       76.97364
O         35.52828       70.88966       79.05940
H         30.97375       70.86499       77.38880
H         33.33024       70.13690       79.12177
H         33.57175       71.87979       76.60703
H         33.84235       70.09844       76.60342
N         33.21839       72.43797       80.30979
C         33.01474       73.65206       81.09136
C         34.32719       74.43463       81.26896
O         34.25563       75.56302       81.73565
C         32.40502       73.22092       82.47229
C         31.12595       72.35838       82.26088
C         32.10370       74.41192       83.40591
C         30.64118       71.65764       83.53260
H         33.79577       71.70595       80.72818
H         32.30419       74.32370       80.55938
H         33.16449       72.57774       82.97203
H         31.33807       71.53363       81.54976
H         30.31128       72.97850       81.82805
H         31.35962       75.09412       82.94349
H         31.71512       74.06633       84.38331
H         33.01924       74.97920       83.65663
H         29.77387       71.00964       83.28596
H         31.45017       71.01359       83.94133
H         30.31415       72.37663       84.30771
N         35.55860       73.91730       80.95449
C         36.80220       74.60516       81.31736
C         37.97453       74.39346       80.34609
O         39.01551       74.99000       80.58677
C         37.17096       74.26604       82.78552
C         37.40921       72.81118       83.08243
O         37.32213       71.96790       82.21228
O         37.70498       72.42950       84.33864
H         35.61878       72.94353       80.64018
H         36.62469       75.70363       81.29852
H         36.33614       74.59808       83.44000
H         38.07811       74.83512       83.07944
N         37.89259       73.62734       79.21569
C         38.97083       73.53731       78.22922
C         40.23670       72.80958       78.67200
O         41.16478       72.74486       77.87860
H         37.01051       73.15613       78.98187
H         39.23575       74.56591       77.90255
H         38.58963       72.99087       77.33932
N         40.35044       72.22010       79.89296
C         41.53772       71.48914       80.36556
C         41.87134       70.20038       79.58428
O         42.86406       69.57059       79.92338
C         41.33975       71.15286       81.86626
C         40.10199       70.32572       82.10625
O         39.42049       69.83525       81.05279
O         39.73560       70.08859       83.24377
H         39.55802       72.32209       80.53938
H         42.41786       72.16626       80.29062
H         41.21770       72.11330       82.41237
H         42.23044       70.63442       82.28476
N         41.11813       69.74428       78.54002
C         41.43750       68.54258       77.77103
C         41.12699       67.21814       78.46470
O         41.32834       66.18728       77.83974
H         40.31262       70.29423       78.22612
H         42.49849       68.58087       77.44372
H         40.81013       68.54915       76.85278
N         40.58788       67.16003       79.71369
C         40.15600       65.94003       80.39230
C         38.65317       65.98452       80.62571
O         38.01465       66.95904       80.24876
C         40.87656       65.82524       81.75082
C         42.38188       65.60118       81.59363
C         43.03406       65.45641       82.94396
N         43.03481       66.48338       83.82595
O         43.56735       64.39916       83.24572
H         40.43727       68.02946       80.21634
H         40.36679       65.03697       79.77877
H         40.48135       64.95863       82.32101
H         40.67418       66.74352       82.34648
H         42.85319       66.44384       81.04549
H         42.53501       64.66712       81.00815
H         42.59960       67.38616       83.58659
H         43.47816       66.37802       84.75037
N         38.02246       64.94891       81.25847
C         36.59464       64.93955       81.54432
C         36.38520       64.96429       83.05243
O         36.74535       64.01027       83.72731
C         35.90055       63.73780       80.82094
C         36.35762       62.34598       81.30518
C         34.37244       63.82818       80.91849
H         38.58024       64.14076       81.56703
H         36.13416       65.85710       81.12481
H         36.16020       63.81470       79.74178
H         37.45417       62.22084       81.20927
H         36.05918       62.15672       82.35642
H         35.87963       61.55548       80.68823
H         33.89889       63.00520       80.34062
H         34.04182       63.74741       81.97163
H         34.01660       64.78905       80.49287
N         35.82044       66.04987       83.66010
C         35.49873       66.07418       85.08746
C         34.38881       65.06543       85.35145
O         33.84064       64.54099       84.39693
C         35.06150       67.50604       85.49157
C         34.75203       67.69145       86.95431
N         35.70042       67.48351       87.89657
O         33.63558       68.05641       87.29097
H         35.59542       66.87297       83.08740
H         36.41445       65.80053       85.65577
H         34.17238       67.79086       84.89150
H         35.87705       68.21374       85.24679
H         36.65138       67.18851       87.63312
H         35.48279       67.62238       88.89451
N         34.00924       64.71168       86.60895
C         32.92600       63.75858       86.82986
C         31.59973       64.30907       86.31956
O         30.91073       63.61790       85.58373
C         32.79965       63.28342       88.29536
C         32.24380       64.27818       89.29034
C         30.93030       64.10524       89.76377
C         33.00602       65.35412       89.77722
C         30.38642       64.99229       90.69227
C         32.46089       66.23844       90.71374
C         31.15093       66.06270       91.17262
O         30.63732       66.92565       92.07129
H         34.52908       65.09279       87.40573
H         33.17420       62.82902       86.26680
H         33.76374       62.87098       88.66315
H         32.09702       62.42108       88.24994
H         30.31915       63.28475       89.40762
H         34.02405       65.50873       89.45834
H         29.37090       64.84408       91.03665
H         33.05936       67.06045       91.08496
H         29.73403       66.83696       92.40777
N         31.20020       65.56823       86.65973
C         29.94395       66.17760       86.22224
C         29.83485       66.17977       84.70947
O         28.78778       65.81404       84.19378
C         29.79173       67.61680       86.76824
C         29.74699       67.63965       88.30646
C         29.48099       69.01539       88.84087
O         28.39321       69.24110       89.60267
O         30.25693       69.92882       88.61014
H         31.84139       66.12611       87.23944
H         29.08986       65.58923       86.62601
H         28.82931       68.03115       86.39177
H         30.61876       68.26364       86.39885
H         30.71009       67.29302       88.72426
H         28.94267       66.95801       88.65956
N         30.90482       66.51119       83.93531
C         30.88960       66.44049       82.47438
C         30.49262       65.04092       82.02700
O         29.53195       64.90957       81.28176
C         32.26778       66.83029       81.89720
C         32.61649       68.29865       82.21180
C         33.97083       68.71101       81.71550
O         34.44468       69.92141       82.04928
O         34.66212       67.96256       81.04593
H         31.77966       66.76673       84.41683
H         30.14221       67.16067       82.07170
H         32.25500       66.69547       80.79475
H         33.04999       66.16339       82.32028
H         32.61661       68.45812       83.30575
H         31.85455       68.97434       81.76768
N         31.15485       63.94832       82.49604
C         30.79079       62.58088       82.18838
H         29.92853       62.51711       81.49344
H         31.65873       62.05983       81.73440
H         30.51789       62.05888       83.13100
H         31.93635       64.08475       83.14129
Ca        37.44844       70.35858       80.10117
O         37.13677       68.99961       83.06670
H         37.68085       68.70676       83.83981
H         36.55762       69.71177       83.43561
O         38.12595       69.01878       77.54621
H         38.00721       68.69607       76.61915
H         38.21456       69.99941       77.45330
O         35.63786       67.76638       78.23411
H         34.72496       67.48344       78.48837
H         36.08613       66.93078       77.94996

Ca 1.0



