%chk=holoCaM-CaMKII.loop4.water2.frame209.chk
%nprocshared=20
%mem=10GB
%nosave
#b3lyp/svp scf=(tight,noincore,xqc) Test 
#IOP(5/87=12) Density=Current Pop=(MK,readradii) iop(6/33=2) iop(6/42=6)

holoCaM-CaMKII.loop4.water2.frame209 

   -3  1 
C         50.06083       54.11399       30.59995
C         51.27765       53.63994       29.86436
O         51.15005       52.94510       28.87085
H         49.13369       53.73647       30.12077
H         50.09867       53.74802       31.64827
H         50.04076       55.22433       30.60550
N         52.50745       53.99098       30.31761
C         53.76590       53.58720       29.69704
C         53.91209       52.06307       29.68737
O         53.80309       51.45042       30.73986
C         54.90768       54.28667       30.45907
C         56.26591       53.93155       29.96304
O         57.15935       53.43499       30.83205
O         56.57891       54.11610       28.79892
H         52.54171       54.59149       31.15771
H         53.79308       53.96463       28.65522
H         54.85232       54.03129       31.53984
H         54.77967       55.38733       30.35595
N         54.16920       51.39560       28.51679
C         54.24100       49.93423       28.38667
C         55.66975       49.44857       28.08815
O         55.89971       48.24955       28.14930
C         53.25864       49.47829       27.24610
C         51.82451       50.04200       27.40793
C         53.19818       47.95102       27.04057
C         51.09127       49.59016       28.67144
H         54.30645       51.95208       27.66336
H         53.94901       49.46876       29.35225
H         53.63774       49.91072       26.29166
H         51.21719       49.74450       26.52456
H         51.87005       51.14704       27.39245
H         52.48139       47.70530       26.22773
H         54.17160       47.54216       26.71024
H         52.88477       47.43102       27.96842
H         50.96618       48.48856       28.68645
H         51.63339       49.91528       29.58180
H         50.08017       50.04889       28.68720
N         56.67423       50.30650       27.75038
C         58.03829       49.88318       27.40489
C         59.09843       50.48902       28.33753
O         60.27512       50.22286       28.13622
C         58.33706       50.14710       25.90204
C         58.20492       51.57394       25.44684
O         57.72827       52.49957       26.28929
O         58.50144       51.88230       24.30426
H         56.45378       51.30490       27.71547
H         58.14204       48.78218       27.52229
H         57.64562       49.53379       25.28357
H         59.37205       49.80108       25.68874
N         58.75239       51.22318       29.43296
C         59.68898       51.65190       30.46517
C         60.63922       52.77094       30.08317
O         61.83367       52.61185       30.28972
H         57.75638       51.38378       29.62607
H         60.25038       50.76987       30.84477
H         59.10340       52.03476       31.32510
N         60.17703       53.95968       29.59535
C         61.01762       55.15028       29.41609
C         60.39735       56.40237       30.05002
O         60.94658       57.48021       29.86795
C         61.39117       55.33886       27.93125
C         60.25848       55.54163       26.97633
O         60.47933       55.49560       25.77711
O         58.99745       55.68478       27.40353
H         59.17975       54.02676       29.35248
H         61.99990       55.00350       29.91754
H         61.91498       54.40718       27.62249
H         62.10706       56.18090       27.81681
N         59.29706       56.33461       30.85963
C         58.72258       57.48490       31.54430
C         57.87150       58.39048       30.67409
O         57.30508       59.32316       31.22746
H         58.89279       55.41891       31.09410
H         59.52268       58.06049       32.05892
H         58.03462       57.10330       32.33061
N         57.69267       58.18154       29.33742
C         56.78678       58.98093       28.51365
C         55.72498       58.09494       27.88260
O         55.78978       56.87999       28.02099
C         57.57914       59.74750       27.43877
C         58.50672       60.79452       28.07340
C         59.23827       61.58839       27.02228
N         60.59088       61.61118       26.98762
O         58.60207       62.23189       26.20048
H         58.19455       57.41407       28.87838
H         56.24057       59.72251       29.13741
H         56.86882       60.27962       26.76955
H         58.17207       59.03331       26.82712
H         59.23246       60.29122       28.74777
H         57.90002       61.50114       28.68068
H         61.14788       61.08509       27.67640
H         61.08498       62.16442       26.27184
N         54.67225       58.65637       27.21792
C         53.56990       57.88289       26.65686
C         53.43394       58.19448       25.17378
O         53.11577       59.32168       24.81862
C         52.26637       58.19698       27.44551
C         51.04291       57.47398       26.86772
C         52.42223       57.79397       28.92234
H         54.61815       59.68502       27.15339
H         53.76657       56.79536       26.76933
H         52.06903       59.29093       27.39483
H         51.17805       56.37538       26.91673
H         50.13230       57.74012       27.44523
H         50.86829       57.78272       25.81896
H         51.49762       58.03477       29.48841
H         52.61592       56.70209       29.00862
H         53.26162       58.34151       29.39836
N         53.67856       57.22415       24.24862
C         53.54926       57.41924       22.80397
C         52.07366       57.51958       22.41309
O         51.22332       57.39482       23.27648
C         54.21330       56.20282       22.10163
C         54.45186       56.36407       20.62176
N         55.26215       57.34387       20.15804
O         53.93739       55.58457       19.83505
H         54.00689       56.30860       24.59063
H         54.10664       58.33907       22.52344
H         53.60465       55.29131       22.30175
H         55.21554       56.04793       22.54836
H         55.72813       57.99450       20.80666
H         55.43819       57.44259       19.14727
N         51.68918       57.69639       21.11915
C         50.30189       57.56257       20.66734
C         49.82494       56.12955       20.90288
O         48.77276       55.93452       21.49507
C         50.22337       57.92095       19.16638
C         48.83662       57.81756       18.56877
C         47.76997       58.58937       19.06434
C         48.60916       56.96168       17.47712
C         46.50274       58.50530       18.47487
C         47.34462       56.88312       16.88777
C         46.28667       57.65698       17.38340
O         45.06439       57.59772       16.81653
H         52.41581       57.88013       20.41388
H         49.65259       58.27859       21.21922
H         50.92491       57.26649       18.60407
H         50.57093       58.96913       19.03785
H         47.91674       59.26176       19.89966
H         49.41374       56.36108       17.07197
H         45.68892       59.10653       18.86119
H         47.19098       56.22483       16.04187
H         44.87907       57.03472       16.05095
N         50.59536       55.07886       20.48911
C         50.26083       53.65689       20.64760
C         50.07404       53.21877       22.10616
O         49.63797       52.09892       22.32933
C         51.39448       52.82451       19.98740
C         51.15466       51.30816       19.90403
C         52.32532       50.62411       19.25670
O         52.65380       50.90709       18.11565
O         53.02048       49.69186       19.93709
H         51.47544       55.31542       20.01151
H         49.30557       53.48093       20.10633
H         52.33887       53.01125       20.54862
H         51.53039       53.19769       18.94809
H         50.23518       51.10542       19.31475
H         51.04018       50.86916       20.91315
N         50.35577       54.04211       23.14913
C         50.20176       53.67266       24.54803
C         48.98495       54.38843       25.10185
O         48.10257       53.72047       25.62314
C         51.51310       53.98940       25.29424
C         52.65051       53.07985       24.78794
C         53.98434       53.35625       25.41809
O         55.03079       52.57468       25.09717
O         54.13829       54.26661       26.21494
H         50.70441       54.98663       22.96367
H         50.00543       52.58280       24.67048
H         51.37896       53.81326       26.38280
H         51.78320       55.05508       25.13448
H         52.77506       53.19437       23.69066
H         52.37974       52.02424       25.00551
N         48.82573       55.73085       24.94694
C         47.62925       56.45029       25.33114
H         46.87366       55.79408       25.81063
H         47.89443       57.26733       26.03162
H         47.17100       56.89416       24.42056
H         49.56041       56.27118       24.48475
Ca        57.53305       54.70018       26.07006
O         57.16030       54.41660       23.05235
H         56.72119       53.70846       23.58398
H         56.84438       54.25479       22.12879
O         57.52225       57.41704       24.72245
H         58.39533       56.95695       24.79685
H         57.75681       58.34106       24.45720

Ca 1.0



