%chk=holoCaM.loop4.water3.frame426.chk
%nprocshared=20
%mem=10GB
%nosave
#b3lyp/svp scf=(tight,noincore,xqc) Test 
#IOP(5/87=12) Density=Current Pop=(MK,readradii) iop(6/33=2) iop(6/42=6)

holoCaM.loop4.water3.frame426 

   -3  1 
C          3.42350       73.04257       61.15701
C          2.65945       72.62653       62.37683
O          1.56730       73.13607       62.57685
H          4.39067       72.50460       61.07937
H          2.81819       72.81427       60.25389
H          3.61940       74.13439       61.19585
N          3.17239       71.70766       63.24592
C          2.44860       71.24446       64.42449
C          3.33442       70.35829       65.28784
O          3.81345       69.33905       64.80963
C          1.17615       70.47427       64.01013
C          0.43082       69.98549       65.21211
O          0.19385       68.79589       65.34595
O          0.04390       70.85960       66.15849
H          4.11644       71.33359       63.06306
H          2.14810       72.13230       65.02302
H          1.44311       69.61413       63.35775
H          0.49185       71.13384       63.44199
N          3.56224       70.69152       66.59186
C          4.38633       69.90462       67.50581
C          3.58264       69.34893       68.68660
O          4.16609       68.61121       69.46921
C          5.58800       70.76373       68.02223
C          5.11901       71.95773       68.90419
C          6.44033       71.24576       66.83308
C          6.25586       72.72911       69.57487
H          3.12894       71.54981       66.95180
H          4.80039       69.02252       66.96937
H          6.22364       70.10286       68.65275
H          4.47161       71.57938       69.72359
H          4.53349       72.67392       68.30066
H          6.77164       70.37920       66.22366
H          5.85895       71.93612       66.18417
H          7.35196       71.77365       67.17672
H          6.85603       72.04982       70.21588
H          6.91314       73.21864       68.82921
H          5.82427       73.52851       70.21516
N          2.27720       69.69550       68.91710
C          1.53618       69.28898       70.11649
C          0.19105       68.61770       69.85033
O         -0.39254       68.11335       70.80100
C          1.31236       70.51702       71.02709
C          0.50381       71.64815       70.41338
O          0.06655       71.60147       69.13080
O          0.25521       72.62092       71.10393
H          1.82450       70.34004       68.26354
H          2.14038       68.55374       70.69280
H          2.30367       70.91935       71.32877
H          0.79604       70.17711       71.95241
N         -0.39190       68.60057       68.62105
C         -1.68585       67.98980       68.35418
C         -2.88104       68.63014       69.05519
O         -3.97067       68.10815       68.86420
H          0.10472       69.01160       67.82729
H         -1.63507       66.91712       68.64232
H         -1.88305       68.03480       67.26135
N         -2.79267       69.71688       69.88532
C         -3.95924       70.22796       70.61188
C         -5.05017       70.80324       69.71189
O         -6.15906       70.97436       70.19941
C         -3.57606       71.24577       71.72250
C         -2.85966       72.48925       71.27452
O         -2.50754       72.62906       70.12204
O         -2.56289       73.44839       72.17105
H         -1.87808       70.14640       70.06147
H         -4.40663       69.35865       71.14211
H         -2.91899       70.74612       72.46394
H         -4.50589       71.56127       72.24247
N         -4.81275       71.17339       68.42225
C         -5.83299       71.75072       67.55590
C         -5.61091       73.23041       67.32210
O         -6.35093       73.80868       66.53902
H         -3.85723       71.10231       68.04812
H         -6.85178       71.64074       67.98546
H         -5.81960       71.20359       66.58855
N         -4.63678       73.91675       67.98792
C         -4.37225       75.33598       67.82747
C         -2.92166       75.53619       67.32592
O         -2.51931       74.45303       66.53424
C         -4.52111       76.04761       69.19264
C         -5.89223       75.85319       69.86200
C         -7.01090       76.49605       69.08622
N         -8.04764       75.75858       68.62558
O         -6.98947       77.70146       68.88639
H         -4.04386       73.42221       68.65055
H         -5.08161       75.77070       67.08817
H         -4.31574       77.13481       69.08796
H         -3.75726       75.62809       69.88545
H         -5.86327       76.31942       70.87065
H         -6.08319       74.76751       70.00701
H         -8.08857       74.74194       68.78820
H         -8.81622       76.20723       68.10570
N         -2.83245       76.77430       66.53706
C         -1.45707       77.12332       66.14551
C         -0.80292       78.00663       67.19602
O         -1.22030       79.14302       67.37604
C         -1.48874       77.81395       64.75112
C         -0.10952       78.33052       64.31595
C         -2.00992       76.83901       63.68331
H         -3.31580       77.58370       66.99202
H         -0.84701       76.19976       66.03025
H         -2.17575       78.68857       64.79487
H         -0.16942       78.79669       63.30985
H          0.23893       79.12091       65.00683
H          0.63062       77.50428       64.28758
H         -2.06163       77.34307       62.69475
H         -1.33088       75.96457       63.59398
H         -3.02748       76.47643       63.93672
N          0.26084       77.54191       67.90844
C          1.05771       78.38418       68.79562
C          1.90047       79.32120       67.94350
O          1.95972       79.14097       66.74017
C          1.94180       77.46705       69.68263
C          2.89213       78.13915       70.63799
N          2.44582       78.97776       71.59897
O          4.08513       77.88665       70.56726
H          0.54662       76.56287       67.77068
H          0.37538       78.96719       69.45318
H          2.53042       76.79266       69.02270
H          1.26777       76.84835       70.30365
H          1.44375       79.19420       71.68984
H          3.11101       79.40837       72.25739
N          2.57717       80.35826       68.49492
C          3.47266       81.22009       67.72485
C          4.65051       80.42043       67.18434
O          4.95714       80.54143       66.00618
C          3.89771       82.45520       68.56167
C          4.51843       82.13341       69.90179
C          3.75198       82.28474       71.07055
C          5.84140       81.67567       70.00780
C          4.28327       81.94551       72.31462
C          6.37205       81.33445       71.25476
C          5.58953       81.45963       72.41186
O          6.07908       81.11482       73.61893
H          2.44214       80.53821       69.49732
H          2.92034       81.64863       66.85649
H          2.95516       83.01917       68.74022
H          4.55917       83.13419       67.98079
H          2.72987       82.63993       71.01669
H          6.46025       81.57200       69.12599
H          3.67055       82.04680       73.20119
H          7.38786       80.96618       71.31844
H          6.97097       80.75633       73.72793
N          5.33656       79.55581       67.98833
C          6.51978       78.80867       67.56242
C          6.21988       77.78323       66.46328
O          7.15441       77.21076       65.92187
C          7.15657       78.12612       68.80194
C          8.59204       77.61327       68.59974
C          9.53462       78.74242       68.28314
O         10.17008       78.74129       67.24141
O          9.68030       79.76351       69.15063
H          5.02676       79.46762       68.96370
H          7.23555       79.56327       67.16964
H          6.49987       77.29280       69.13599
H          7.20240       78.86435       69.63268
H          8.62902       76.83854       67.80832
H          8.93352       77.13718       69.54343
N          4.94455       77.52782       66.05545
C          4.59856       76.64677       64.95062
C          4.36672       77.51882       63.73326
O          5.04798       77.34287       62.73287
C          3.33278       75.83351       65.30183
C          3.51961       74.95174       66.54948
C          2.23485       74.29809       66.99247
O          2.21494       73.56288       68.11827
O          1.19887       74.45273       66.36809
H          4.16721       78.02808       66.49681
H          5.42840       75.93919       64.72387
H          3.04074       75.19387       64.43921
H          2.50327       76.54398       65.50567
H          3.87050       75.57920       67.39419
H          4.28495       74.17225       66.34544
N          3.45141       78.52557       63.77180
C          3.24947       79.44940       62.68121
H          2.47146       80.19220       62.96319
H          4.19408       79.99631       62.47439
H          2.91714       78.90521       61.77441
H          2.89353       78.66795       64.61895
Ca        -1.18096       73.03165       67.80474
O         -0.28915       75.02027       69.56522
H          0.58049       74.74005       69.94569
H         -0.94010       74.90452       70.29976
O         -2.64945       71.16715       65.81543
H         -2.54491       70.23534       66.13408
H         -3.48706       71.16112       65.29095
O         -0.82218       73.19389       64.59870
H         -1.64021       73.34440       64.06327
H         -0.20585       73.91350       64.31664

Ca 1.0



