%chk=holoCaM-CaMKII.loop1.water2.frame42.chk
%nprocshared=20
%mem=10GB
%nosave
#b3lyp/svp scf=(tight,noincore,xqc) Test 
#IOP(5/87=12) Density=Current Pop=(MK,readradii) iop(6/33=2) iop(6/42=6)

holoCaM-CaMKII.loop1.water2.frame42 

   0  1 
C          2.98192       81.71889       14.70848
C          2.16577       82.70099       15.49377
O          2.15706       82.60812       16.70756
H          4.04591       81.79167       15.01636
H          2.61047       80.69208       14.90779
H          2.91478       81.91355       13.61735
N          1.47671       83.68809       14.86017
C          0.65644       84.69658       15.52846
C         -0.63440       84.07732       16.08572
O         -1.67222       84.18308       15.44480
C          0.33140       85.79704       14.49519
C         -0.38259       86.96860       15.08600
O         -0.72009       87.87664       14.35124
O         -0.63776       87.04379       16.40739
H          1.57706       83.74705       13.83422
H          1.24676       85.19115       16.33153
H         -0.28508       85.36877       13.67410
H          1.27519       86.18190       14.05113
N         -0.64382       83.38680       17.26058
C         -1.81640       82.64760       17.72947
C         -2.87251       83.52230       18.39832
O         -3.91256       82.98274       18.75004
C         -1.38178       81.48417       18.64553
C         -0.46065       80.51496       17.88102
C         -0.02460       79.33086       18.74068
C          0.96353       78.44579       17.96644
N          1.43186       77.33786       18.79564
H          0.22895       83.30936       17.79650
H         -2.30421       82.16970       16.85036
H         -2.28103       80.92038       18.97699
H         -0.86141       81.88231       19.54489
H          0.44957       81.05115       17.55686
H         -0.98357       80.13698       16.97443
H         -0.91636       78.73526       19.03505
H          0.47508       79.71323       19.65660
H          1.84014       79.05724       17.65325
H          0.47496       78.04435       17.05003
H          0.62683       76.73012       19.07092
H          2.11948       76.76969       18.25020
H          1.90522       77.70909       19.65147
N         -2.71101       84.86577       18.57831
C         -3.75534       85.73403       19.12705
C         -4.28793       86.71496       18.07790
O         -5.20082       87.46269       18.40003
C         -3.26695       86.41602       20.42372
C         -1.93701       87.08898       20.28069
O         -1.78488       87.99286       19.47976
O         -0.89894       86.67844       21.03397
H         -1.82920       85.30980       18.28479
H         -4.64942       85.14171       19.42052
H         -3.16450       85.63588       21.20954
H         -4.02388       87.14872       20.78105
N         -3.84319       86.71085       16.78550
C         -4.45564       87.49057       15.71734
C         -4.33855       88.98110       15.93006
O         -5.34755       89.66847       15.98173
H         -3.08530       86.07510       16.50839
H         -5.52111       87.19300       15.61589
H         -3.94336       87.24358       14.76058
N         -3.10757       89.53723       16.04518
C         -2.82932       90.95781       16.25316
C         -1.91583       91.52772       15.15922
O         -1.51949       92.67937       15.27395
C         -2.19340       91.12690       17.65768
C         -0.88907       90.38103       17.82524
O         -0.28566       90.27444       19.01642
O         -0.37829       89.80254       16.88700
H         -2.31720       88.88775       16.00706
H         -3.77324       91.54752       16.24953
H         -2.92085       90.72453       18.39715
H         -2.03855       92.20295       17.88890
N         -1.55597       90.79537       14.06218
C         -0.68459       91.29472       13.00872
C          0.77479       91.43968       13.40937
O          1.47162       92.18020       12.73192
H         -1.96572       89.86531       13.91824
H         -1.08235       92.26311       12.63536
H         -0.70278       90.58871       12.15025
N          1.34284       90.66845       14.38587
C          2.77196       90.70797       14.73564
C          3.22131       89.43032       15.45826
O          2.40317       88.72701       16.03414
C          3.15560       91.95329       15.60998
C          3.00872       93.30156       14.90427
O          2.45275       92.00775       16.82993
H          0.74826       89.95444       14.81667
H          3.34761       90.71332       13.78388
H          4.23512       91.85425       15.85643
H          1.66680       91.40720       16.79908
H          1.94758       93.53543       14.68939
H          3.38942       94.11044       15.56401
H          3.60684       93.31014       13.96814
N          4.53699       89.05523       15.41251
C          5.07201       87.83565       16.02074
C          6.16769       88.21028       17.00619
O          7.18867       88.75123       16.60354
C          5.59640       86.87141       14.90694
C          4.39425       86.33903       14.08314
C          6.41139       85.69498       15.48958
C          4.79310       85.53101       12.84685
H          5.19627       89.65050       14.88719
H          4.27732       87.29445       16.58012
H          6.27782       87.44868       14.24264
H          3.78510       87.19326       13.72121
H          3.75014       85.70822       14.73628
H          6.82105       85.04631       14.69117
H          7.29735       86.06605       16.04016
H          5.79064       85.07799       16.16846
H          5.36035       84.61648       13.10981
H          3.87567       85.20734       12.31167
H          5.40078       86.16029       12.16286
N          6.00916       87.93341       18.33066
C          7.02976       88.18818       19.34338
C          8.11739       87.12350       19.26068
O          8.00063       86.21044       18.46242
C          6.38953       88.18746       20.76413
C          5.29601       89.25110       20.88816
O          5.83305       86.93336       21.04157
H          5.12181       87.51510       18.63153
H          7.46822       89.19685       19.17881
H          7.18172       88.41212       21.51252
H          5.55461       86.93488       21.99439
H          4.88723       89.25598       21.92090
H          5.69818       90.25817       20.65709
H          4.46229       89.01517       20.19905
N          9.19307       87.15373       20.09170
C         10.16510       86.06000       20.17593
C          9.47744       84.78070       20.65023
O          9.74033       83.71440       20.11354
C         11.32551       86.42531       21.13953
C         12.16761       87.57965       20.57579
O         10.82295       86.76632       22.40727
H          9.29189       87.95982       20.72646
H         10.62570       85.86818       19.18072
H         11.99020       85.53368       21.22877
H         11.59242       86.76192       23.03504
H         13.01197       87.80539       21.26077
H         12.59213       87.29266       19.58957
H         11.56186       88.50051       20.44920
N          8.57631       84.83881       21.66642
C          7.88371       83.69038       22.25613
C          7.02517       82.97591       21.21996
O          7.18848       81.77731       21.04070
C          7.05932       84.17695       23.47575
C          8.02191       84.72314       24.55758
C          7.31666       85.42361       25.72038
C          8.32085       85.96672       26.76205
N          9.24548       86.96122       26.20263
H          8.36866       85.77680       22.03891
H          8.63005       82.96234       22.64605
H          6.46511       83.34449       23.91184
H          6.35356       84.97035       23.14706
H          8.69419       85.46883       24.10421
H          8.64670       83.88773       24.94149
H          6.63432       84.70509       26.22271
H          6.71012       86.27000       25.32911
H          8.90484       85.12692       27.19960
H          7.74007       86.44304       27.58157
H          9.92028       86.51875       25.53883
H          8.71687       87.72435       25.72099
H          9.80790       87.37914       26.97834
N          6.13187       83.66798       20.46118
C          5.33572       83.09255       19.37671
C          6.23592       82.38292       18.37723
O          5.98955       81.21891       18.09203
C          4.46993       84.19747       18.70355
C          3.33597       84.62642       19.65789
C          2.39052       85.67404       19.13075
O          2.80105       86.93998       18.95470
O          1.20291       85.41411       19.01532
H          6.06151       84.67349       20.63001
H          4.63911       82.32342       19.78101
H          4.00565       83.78974       17.78506
H          5.10375       85.06088       18.40945
H          3.75930       85.01941       20.60445
H          2.73987       83.71926       19.89776
N          7.33591       82.99531       17.86454
C          8.28155       82.34532       16.97927
H          9.27415       82.30026       17.47734
H          7.97926       81.30902       16.71984
H          8.37735       82.93287       16.04367
H          7.54430       83.95411       18.15270
Ca         1.24231       88.58930       18.93155
O          2.05418       88.27477       21.72232
H          2.51451       87.41385       21.55982
H          1.10414       88.02794       21.84387
O          2.89147       90.77846       19.36144
H          3.29970       91.66217       19.19388
H          2.78030       90.73655       20.34392

Ca 1.0



