%chk=holoCaM-CaMKII.loop2.water1.frame307.chk
%nprocshared=20
%mem=10GB
%nosave
#b3lyp/svp scf=(tight,noincore,xqc) Test 
#IOP(5/87=12) Density=Current Pop=(MK,readradii) iop(6/33=2) iop(6/42=6)

holoCaM-CaMKII.loop2.water1.frame307 

   -2  1 
C         57.82872       28.37795       41.63540
C         59.28328       28.70052       41.84372
O         59.60699       29.70368       42.46077
H         57.16971       29.14457       42.09271
H         57.60844       28.30538       40.54963
H         57.60242       27.39511       42.10597
N         60.21901       27.84194       41.36560
C         61.65520       27.95623       41.59791
C         62.29827       29.18395       40.95823
O         62.08333       29.43083       39.78013
C         62.34009       26.69468       41.05120
C         63.80181       26.71643       41.35079
O         64.21365       26.81492       42.62898
O         64.61536       26.67339       40.44243
H         59.87265       27.01045       40.85998
H         61.83205       27.96889       42.69483
H         62.17281       26.61582       39.95409
H         61.90286       25.79858       41.54188
N         63.19892       29.92581       41.67448
C         63.96153       31.04977       41.13782
C         65.48740       30.85586       41.21684
O         66.18468       31.74034       40.73848
C         63.57095       32.31305       41.91475
H         63.36482       29.66957       42.65321
H         63.70481       31.20839       40.06865
H         62.47769       32.48822       41.82782
H         63.82634       32.20179       42.99185
H         64.09918       33.20478       41.51462
N         66.08480       29.78381       41.83117
C         67.54571       29.66837       42.00271
C         68.13956       28.30395       41.62673
O         69.32054       28.27255       41.30923
C         67.96586       30.11264       43.42128
C         67.31221       29.34723       44.52779
O         67.48155       29.69339       45.68610
O         66.48715       28.32680       44.26243
H         65.47822       29.09057       42.27675
H         68.04662       30.39539       41.32692
H         67.66011       31.17505       43.54380
H         69.06899       30.05513       43.54179
N         67.42876       27.13931       41.67954
C         67.94281       25.84847       41.23294
C         68.20289       24.85474       42.35229
O         68.58071       23.73451       42.03907
H         66.47395       27.15355       42.03516
H         68.90205       25.96722       40.68687
H         67.20971       25.41824       40.51609
N         68.10187       25.19159       43.67054
C         68.51970       24.29879       44.75755
C         67.60364       23.08562       44.99114
O         67.89109       22.32050       45.90156
C         68.74169       25.12008       46.05247
C         67.50399       25.73517       46.63523
N         67.59272       26.54246       47.71500
O         66.41639       25.51121       46.13760
H         67.83963       26.15813       43.90709
H         69.53121       23.91006       44.50580
H         69.45605       25.94001       45.81753
H         69.20582       24.47842       46.83158
H         68.50550       26.75690       48.14133
H         66.74615       26.96140       48.11998
N         66.52157       22.81181       44.20269
C         65.69503       21.61797       44.35807
C         64.68922       21.67102       45.49747
O         63.94848       20.70912       45.64362
H         66.31652       23.41497       43.39735
H         66.34701       20.72103       44.44515
H         65.08941       21.49483       43.43435
N         64.57132       22.75128       46.31886
C         63.56690       22.87877       47.37433
C         62.70873       24.12059       47.15993
O         62.99882       24.91419       46.27489
C         64.27406       22.94508       48.75556
C         64.89836       21.59518       49.11077
O         65.28440       23.92397       48.76389
H         65.21585       23.53326       46.19219
H         62.87043       22.01230       47.36648
H         63.54096       23.16172       49.56427
H         64.84422       24.80846       48.67780
H         65.38405       21.65595       50.10798
H         64.10854       20.81438       49.15673
H         65.66023       21.29664       48.36070
N         61.64796       24.37005       47.98498
C         60.88347       25.61159       47.94477
C         61.43568       26.50377       49.03622
O         61.57814       26.04637       50.16302
C         59.35251       25.41478       48.19390
C         58.73166       24.28495       47.34175
C         58.62327       26.75523       47.92934
C         57.23979       24.07282       47.64404
H         61.45437       23.70978       48.75303
H         60.99809       26.09853       46.94880
H         59.20919       25.12943       49.26051
H         59.25207       23.33526       47.58738
H         58.86141       24.49007       46.25786
H         57.55313       26.71469       48.20665
H         59.05027       27.56859       48.53591
H         58.70784       27.03999       46.85744
H         56.86217       23.18997       47.09028
H         57.08273       23.90442       48.73195
H         56.63013       24.94239       47.32276
N         61.70564       27.80976       48.78932
C         62.19090       28.73306       49.80806
C         61.05337       29.60874       50.24970
O         59.95004       29.46035       49.74132
C         63.32549       29.59164       49.22994
C         64.44099       28.74506       48.72497
O         64.14734       27.77231       47.84827
O         65.59991       28.99889       49.01171
H         61.49183       28.18664       47.85531
H         62.55708       28.18439       50.70308
H         63.71192       30.32953       49.96495
H         62.92467       30.15375       48.35652
N         61.22332       30.52863       51.23187
C         60.12025       31.35892       51.67306
C         59.64685       32.27569       50.54378
O         58.44795       32.31137       50.32064
C         60.45739       32.14760       52.95012
C         59.19534       32.69564       53.56663
C         58.26030       31.81877       54.15091
C         58.93523       34.07308       53.56141
C         57.08848       32.31647       54.72408
C         57.75525       34.56594       54.12666
C         56.83481       33.68961       54.71017
H         62.14218       30.60876       51.69565
H         59.29411       30.66526       51.95412
H         61.17321       32.95946       52.73127
H         60.93402       31.48151       53.70257
H         58.44287       30.75046       54.17126
H         59.63743       34.76064       53.10754
H         56.37804       31.63702       55.17821
H         57.55441       35.62831       54.11158
H         55.92484       34.07385       55.15132
N         60.49970       33.02086       49.75663
C         60.03976       33.90012       48.68234
C         59.40183       33.18499       47.49663
O         58.94716       33.86487       46.58610
C         61.31436       34.62151       48.21874
C         62.17818       34.58163       49.46637
C         61.92932       33.15484       49.93038
H         59.33337       34.62853       49.13938
H         61.84165       33.99286       47.46252
H         61.14216       35.62561       47.77510
H         63.24681       34.82735       49.29092
H         61.75603       35.28099       50.22330
H         62.43403       32.45553       49.22649
H         62.31408       32.97528       50.94665
N         59.34994       31.82297       47.42885
C         58.76899       31.07063       46.32389
C         57.47869       30.38513       46.75583
O         56.75678       29.91216       45.89012
C         59.77311       29.99728       45.85414
C         61.14061       30.58343       45.46643
C         62.17999       29.52303       45.22977
O         63.33302       29.86055       45.02166
O         61.87620       28.21074       45.28968
H         59.75638       31.27438       48.19113
H         58.51637       31.76064       45.48865
H         59.35457       29.40586       45.01233
H         59.92381       29.30578       46.70817
H         61.52170       31.20709       46.30136
H         61.03998       31.22090       44.56156
N         57.12923       30.27977       48.07262
C         55.90028       29.68527       48.54584
H         55.23366       29.37425       47.71723
H         56.13937       28.80231       49.17497
H         55.36464       30.43058       49.17202
H         57.75960       30.61622       48.80333
Ca        65.16546       27.77794       45.91719
O         63.90419       24.28912       43.62745
H         64.02380       24.09463       42.66440
H         62.94807       24.52592       43.71639

Ca 1.0



