%chk=holoCaM-CaMKII.loop1.water2.frame153.chk
%nprocshared=20
%mem=10GB
%nosave
#b3lyp/svp scf=(tight,noincore,xqc) Test 
#IOP(5/87=12) Density=Current Pop=(MK,readradii) iop(6/33=2) iop(6/42=6)

holoCaM-CaMKII.loop1.water2.frame153 

   0  1 
C          0.06092       95.71119       48.86470
C         -0.76026       96.95340       48.71182
O         -0.37922       97.99941       49.21551
H          0.97985       95.91368       49.45259
H         -0.54154       94.94138       49.39352
H          0.34244       95.32534       47.86268
N         -1.92781       96.89703       48.02132
C         -2.82522       98.03383       47.86525
C         -3.32903       98.44666       49.24222
O         -3.93697       97.60889       49.89578
C         -4.00118       97.58856       46.96550
C         -4.97245       98.66118       46.59763
O         -5.97728       98.34920       45.98526
O         -4.75098       99.95154       46.90359
H         -2.19086       95.99053       47.60102
H         -2.27919       98.86395       47.36393
H         -4.55768       96.77748       47.48508
H         -3.60550       97.17494       46.01143
N         -3.11132       99.69746       49.75878
C         -3.56682      100.07057       51.10050
C         -4.72032      101.06320       51.07519
O         -5.27545      101.31852       52.13519
C         -2.42718      100.61684       51.99021
C         -1.15031       99.75981       51.96004
C         -0.20526      100.06385       53.14126
C         -0.70833       99.52675       54.50266
N         -0.81001       98.06309       54.51594
H         -2.62009      100.39732       49.18905
H         -3.95889       99.16486       51.61134
H         -2.84194      100.66505       53.01768
H         -2.14406      101.65257       51.69499
H         -0.62614       99.98996       51.00659
H         -1.38450       98.67934       51.94522
H         -0.04000      101.16218       53.20990
H          0.78031       99.59014       52.94409
H         -1.68647       99.97106       54.78187
H          0.02185       99.83310       55.28377
H         -1.05247       97.74314       55.48082
H         -1.56483       97.73032       53.87621
H          0.10416       97.63476       54.24132
N         -5.15278      101.64834       49.91986
C         -6.31478      102.52845       49.84535
C         -7.39366      101.95008       48.92941
O         -8.39625      102.61633       48.71378
C         -5.88960      103.97031       49.48347
C         -5.28124      104.20821       48.12864
O         -4.88567      105.32945       47.85283
O         -5.10970      103.22418       47.23151
H         -4.65911      101.45193       49.04383
H         -6.78791      102.62511       50.84683
H         -5.14827      104.29668       50.24760
H         -6.77512      104.63525       49.57266
N         -7.30011      100.67950       48.42810
C         -8.35885      100.02543       47.67432
C         -8.58703      100.54317       46.26675
O         -9.49575      100.03203       45.62714
H         -6.49598      100.09017       48.67948
H         -9.30279      100.09848       48.25635
H         -8.11138       98.94589       47.57986
N         -7.83641      101.53279       45.70136
C         -8.12237      102.05982       44.36445
C         -7.95029      101.04611       43.23035
O         -8.42718      101.32449       42.13921
C         -7.31580      103.34855       44.08802
C         -5.81703      103.21118       44.14836
O         -5.05928      104.30598       43.95517
O         -5.27833      102.14615       44.40278
H         -7.08575      101.96276       46.25539
H         -9.19522      102.35591       44.36337
H         -7.60329      104.10372       44.84998
H         -7.59266      103.74687       43.08830
N         -7.28069       99.87116       43.39787
C         -7.16448       98.84612       42.36823
C         -5.75205       98.67491       41.84780
O         -5.55573       97.78667       41.02872
H         -6.82485       99.68908       44.29401
H         -7.80625       99.07660       41.49034
H         -7.52269       97.88484       42.79561
N         -4.73844       99.52019       42.19851
C         -3.40562       99.46380       41.60302
C         -2.30241       99.49909       42.64728
O         -2.56449       99.71233       43.82478
C         -3.22202      100.64913       40.61798
C         -4.10551      100.51542       39.37239
O         -3.44712      101.88216       41.25529
H         -4.93654      100.29233       42.84504
H         -3.27642       98.51549       41.03508
H         -2.17755      100.65365       40.24066
H         -4.42408      101.98467       41.40411
H         -3.85472       99.57673       38.83397
H         -5.18235      100.50374       39.64023
H         -3.91555      101.37200       38.69126
N         -1.01741       99.27014       42.24873
C          0.15030       99.30946       43.11992
C          1.18334      100.24304       42.49519
O          1.51756      100.05908       41.33151
C          0.73173       97.87731       43.31234
C         -0.35864       96.92767       43.88101
C          1.95277       97.92740       44.25794
C          0.09277       95.47123       44.00585
H         -0.85557       99.01840       41.26035
H         -0.12851       99.67290       44.12850
H          1.05806       97.48741       42.32243
H         -1.23211       96.92348       43.19543
H         -0.70175       97.29006       44.87567
H          2.42095       96.93138       44.37747
H          2.74106       98.58627       43.84807
H          1.65736       98.30956       45.25998
H          0.42199       95.08685       43.01706
H          0.91393       95.35670       44.74078
H         -0.75858       94.85303       44.36069
N          1.77655      101.22733       43.22775
C          2.81135      102.11801       42.69452
C          4.19064      101.62310       43.09878
O          4.28980      100.60585       43.76191
C          2.59288      103.56860       43.20372
C          1.21859      104.10942       42.83438
O          2.73142      103.60544       44.59912
H          1.54275      101.29223       44.22794
H          2.78281      102.12170       41.58235
H          3.35934      104.22588       42.73340
H          2.97528      104.53597       44.84600
H          0.45106      103.49302       43.33390
H          1.11472      105.15463       43.19730
H          1.06883      104.09128       41.73536
N          5.31436      102.28744       42.71423
C          6.65367      101.90642       43.16085
C          6.78937      102.10796       44.66681
O          7.16772      101.18018       45.36712
C          7.74827      102.72416       42.42150
C          7.78635      102.38738       40.92677
O          7.53929      104.10377       42.58788
H          5.21023      103.10393       42.09381
H          6.84106      100.83451       42.92147
H          8.73349      102.43656       42.85987
H          8.39871      104.55585       42.38255
H          7.98617      101.30399       40.78512
H          6.82823      102.64653       40.43095
H          8.60288      102.95811       40.43582
N          6.50760      103.32115       45.21794
C          6.69697      103.66929       46.62619
C          5.87714      102.76144       47.52830
O          6.42933      102.13904       48.42437
C          6.32429      105.15943       46.80137
C          6.68426      105.74823       48.17167
C          6.32656      107.24864       48.26853
C          7.03866      108.17653       47.25632
N          8.49221      108.18827       47.43010
H          6.15040      104.05282       44.58532
H          7.77585      103.56127       46.87598
H          5.24077      105.30914       46.59591
H          6.90434      105.71529       46.03710
H          7.76714      105.60457       48.36973
H          6.11998      105.20517       48.95991
H          6.56397      107.60320       49.29446
H          5.23017      107.35659       48.11935
H          6.65580      109.20991       47.40698
H          6.78677      107.89851       46.21114
H          8.89724      107.24358       47.24525
H          8.90978      108.86176       46.74725
H          8.73457      108.50039       48.39827
N          4.54941      102.60284       47.29134
C          3.66431      101.70372       48.02725
C          4.21377      100.28853       48.02623
O          4.37095       99.70104       49.08722
C          2.27581      101.75390       47.35983
C          1.20471      100.94113       48.08114
C         -0.11660      101.19524       47.42958
O         -0.34790      100.80761       46.29704
O         -1.02347      101.93311       48.08216
H          4.15766      103.13201       46.50238
H          3.56510      102.05851       49.07760
H          2.35445      101.41051       46.30877
H          1.94427      102.81770       47.35542
H          1.15071      101.29354       49.13322
H          1.42722       99.85250       48.07863
N          4.56141       99.69809       46.85610
C          5.12475       98.37112       46.77135
H          6.05997       98.31828       47.36793
H          4.39410       97.62336       47.14230
H          5.37019       98.13801       45.71218
H          4.44826      100.23325       45.99437
Ca        -3.07265      102.31464       47.28577
O         -1.94016      103.13509       43.27818
H         -1.72621      103.75197       42.53347
H         -2.91542      103.22330       43.39172
O         -1.75396      104.67965       45.94095
H         -1.23820      105.44058       46.30789
H         -2.70018      104.96341       46.01027

Ca 1.0



