%chk=holoCaM-CaMKII.loop3.water2.frame173.chk
%nprocshared=20
%mem=10GB
%nosave
#b3lyp/svp scf=(tight,noincore,xqc) Test 
#IOP(5/87=12) Density=Current Pop=(MK,readradii) iop(6/33=2) iop(6/42=6)

holoCaM-CaMKII.loop3.water2.frame173 

   0  1 
C          9.00504       48.38264       26.01083
C          8.78417       47.38588       27.10461
O          8.02482       47.66367       28.02232
H         10.08275       48.64202       25.95509
H          8.68210       47.94152       25.04451
H          8.41915       49.30756       26.19752
N          9.43671       46.19167       27.07028
C          9.26451       45.15635       28.07333
C         10.54734       45.01079       28.84983
O         11.31205       44.07771       28.64504
C          8.80378       43.85604       27.41038
C          8.46959       42.85625       28.46655
O          8.97735       41.74949       28.45682
O          7.61334       43.20107       29.44395
H         10.09686       46.00882       26.29827
H          8.47174       45.44439       28.80070
H          9.56533       43.45911       26.70439
H          7.87901       44.05783       26.83907
N         10.83880       45.96296       29.76782
C         12.06925       45.99874       30.53778
C         12.16432       44.77467       31.44365
O         13.13885       44.04337       31.33350
C         12.17501       47.34413       31.30393
C         12.12735       48.53756       30.31127
C         12.32659       49.90250       30.98004
C         12.26465       51.06645       29.96468
N         10.92129       51.27015       29.41040
H         10.13847       46.70575       29.90656
H         12.93135       45.98534       29.83212
H         13.14327       47.36619       31.84986
H         11.34961       47.44015       32.04294
H         11.15201       48.55172       29.79521
H         12.92224       48.40581       29.54497
H         13.33377       49.90561       31.44926
H         11.56724       50.06659       31.77479
H         12.99074       50.89025       29.13953
H         12.56794       51.99986       30.48707
H         10.59934       50.44354       28.86052
H         10.24292       51.47205       30.18054
H         10.94234       52.09242       28.76434
N         11.17881       44.47085       32.34239
C         11.24757       43.31041       33.24221
C         11.26332       41.94650       32.53781
O         11.52171       40.95721       33.21026
C         10.11169       43.33781       34.28741
C          8.74650       43.10901       33.69314
O          8.28433       43.87977       32.86763
O          8.02005       42.04715       34.08758
H         10.38322       45.12097       32.41703
H         12.20456       43.40767       33.80308
H         10.12420       44.30946       34.82575
H         10.30371       42.53839       35.03739
N         11.02932       41.80820       31.20240
C         11.21262       40.55406       30.48709
C         10.19656       39.45105       30.73791
O         10.39072       38.40120       30.13987
H         10.81157       42.63906       30.64045
H         12.23196       40.16836       30.70908
H         11.18117       40.76422       29.39678
N          9.10181       39.56437       31.55500
C          8.17665       38.43512       31.72915
C          7.45081       38.02043       30.43628
O          6.81497       36.97494       30.46554
C          7.18716       38.62198       32.91661
C          6.27023       39.84515       32.85351
N          5.27030       39.82345       33.91418
O          5.64544       39.93897       31.62389
H          8.94802       40.43440       32.08227
H          8.79722       37.55863       32.02249
H          7.77017       38.70336       33.85857
H          6.55819       37.70721       32.99174
H          5.75781       39.90923       34.83374
H          4.65692       40.66377       33.80659
N          7.51561       38.73850       29.27020
C          6.95136       38.26864       28.00557
C          5.86299       39.15352       27.42056
O          5.34254       38.79623       26.37569
H          8.02380       39.62983       29.25296
H          6.51002       37.25593       28.12090
H          7.77514       38.18682       27.26424
N          5.44460       40.29874       28.03220
C          4.33667       41.11602       27.52746
C          4.25467       42.47304       28.22638
O          4.93556       42.69689       29.20878
C          2.97941       40.37127       27.66777
C          2.71044       39.88370       29.08266
C          1.77619       40.53462       29.90633
C          3.38429       38.75501       29.58879
C          1.54466       40.08023       31.21210
C          3.14762       38.29979       30.88573
C          2.23072       38.96479       31.70612
O          2.00050       38.53882       32.96464
H          5.93059       40.59099       28.87917
H          4.54187       41.35227       26.46042
H          2.92452       39.49695       26.98615
H          2.17254       41.06220       27.34052
H          1.23835       41.40250       29.54667
H          4.08690       38.20728       28.98392
H          0.83274       40.59712       31.84262
H          3.68061       37.42965       31.24990
H          2.45854       37.77176       33.33867
N          3.45518       43.45832       27.71558
C          3.37547       44.79685       28.30528
C          1.95073       45.16777       28.66457
O          1.01077       44.49737       28.26646
C          3.99021       45.87549       27.35543
C          3.31761       45.87686       25.95425
C          5.50549       45.66837       27.25262
C          3.79297       47.00599       25.03656
H          2.91614       43.26220       26.86133
H          3.94046       44.82393       29.26149
H          3.83645       46.87492       27.81845
H          2.22049       45.99707       26.07790
H          3.50828       44.91346       25.43533
H          5.72384       44.69610       26.76984
H          5.98362       46.48069       26.67089
H          5.96115       45.68776       28.26530
H          4.87285       46.91668       24.80205
H          3.24184       46.95017       24.07372
H          3.59409       47.99348       25.50322
N          1.74807       46.26666       29.44510
C          0.44479       46.80816       29.79715
C          0.37504       48.27161       29.37278
O          1.34481       48.79616       28.84401
C          0.23117       46.65876       31.31459
O          1.21113       47.36609       32.02366
H          2.57295       46.75365       29.81831
H         -0.36577       46.24943       29.28187
H          0.29014       45.57896       31.57831
H         -0.77778       47.03651       31.59112
H          0.97066       47.28772       32.98334
N         -0.75325       49.00137       29.59722
C         -0.85478       50.42847       29.29903
C          0.16561       51.21906       30.09599
O          0.81407       52.08932       29.53304
C         -2.25879       50.93997       29.62663
H         -1.56482       48.52743       30.02035
H         -0.69355       50.60057       28.21078
H         -3.00814       50.38724       29.02097
H         -2.49030       50.80357       30.70405
H         -2.33553       52.01960       29.37290
N          0.37979       50.93850       31.41256
C          1.37922       51.61415       32.23284
C          2.76909       51.49168       31.63123
O          3.41917       52.51042       31.44155
C          1.38295       51.02348       33.64974
H         -0.17917       50.18533       31.84375
H          1.11403       52.69167       32.32138
H          1.63790       49.94190       33.62935
H          2.12524       51.55230       34.28549
H          0.38045       51.14109       34.11356
N          3.28866       50.27248       31.30494
C          4.64436       50.10248       30.77669
C          4.84755       50.81705       29.44642
O          5.99312       51.03541       29.07688
C          4.98791       48.61023       30.58157
C          4.94292       47.80483       31.88995
C          5.18370       46.34693       31.62487
O          4.33129       45.52501       31.91980
O          6.33701       45.93676       31.06389
H          2.69606       49.44493       31.45527
H          5.34959       50.54205       31.51723
H          6.00890       48.51414       30.14962
H          4.26988       48.18732       29.85081
H          3.95452       47.90847       32.38228
H          5.71726       48.18542       32.58891
N          3.79432       51.17781       28.66031
C          3.92923       51.87876       27.40037
H          4.98486       52.12252       27.16030
H          3.51313       51.25240       26.58388
H          3.35459       52.82780       27.45092
H          2.84260       50.93147       28.94943
Ca         6.85646       41.65980       30.84845
O          3.51700       42.65392       32.03866
H          3.14781       42.69903       31.12231
H          2.92056       43.23919       32.56927
O          5.39172       43.58623       34.24179
H          5.76509       44.44638       34.55959
H          5.39015       43.00377       35.04245

Ca 1.0



