%chk=holoCaM-CaMKII.loop4.water1.frame485.chk
%nprocshared=20
%mem=10GB
%nosave
#b3lyp/svp scf=(tight,noincore,xqc) Test 
#IOP(5/87=12) Density=Current Pop=(MK,readradii) iop(6/33=2) iop(6/42=6)

holoCaM-CaMKII.loop4.water1.frame485 

   -3  1 
C         93.02647       82.59465       81.46944
C         93.78268       81.58080       80.65627
O         93.64786       80.39506       80.91276
H         91.93562       82.41020       81.37835
H         93.32345       82.51880       82.53598
H         93.23334       83.63026       81.12306
N         94.60296       81.98598       79.64938
C         95.36074       81.07965       78.78987
C         96.35090       80.24988       79.60294
O         97.08049       80.80851       80.41002
C         96.10989       81.91096       77.72709
C         96.79095       81.09365       76.66542
O         97.44808       81.66211       75.81105
O         96.66700       79.75479       76.61957
H         94.67879       83.00057       79.47477
H         94.64501       80.41649       78.25171
H         96.86376       82.55046       78.23461
H         95.38313       82.57015       77.20308
N         96.45424       78.90660       79.39094
C         97.34797       78.01466       80.12432
C         98.49585       77.54255       79.23267
O         99.63584       77.65166       79.66364
C         96.53785       76.81580       80.71651
C         95.43326       77.35038       81.66904
C         97.47190       75.82884       81.44786
C         94.59041       76.26827       82.34992
H         95.86969       78.49010       78.65645
H         97.81220       78.54733       80.98577
H         96.05380       76.25683       79.88570
H         94.74084       77.98812       81.08215
H         95.89190       77.97592       82.46530
H         98.24636       75.43139       80.75973
H         97.97034       76.32182       82.30864
H         96.91096       74.94268       81.80799
H         93.79384       76.75262       82.95287
H         94.11926       75.59971       81.60507
H         95.20083       75.65823       83.04502
N         98.28633       77.00639       77.99411
C         99.35804       76.40761       77.18952
C         99.93974       77.33375       76.11728
O        100.78244       76.88145       75.35437
C         98.90833       75.03099       76.65097
C         97.78031       75.06156       75.65259
O         97.35924       74.00890       75.20073
O         97.23355       76.22150       75.23934
H         97.32678       76.99245       77.62291
H        100.22728       76.18042       77.84608
H         98.59506       74.40714       77.51763
H         99.77596       74.52805       76.17093
N         99.64721       78.66442       76.08341
C        100.34062       79.62248       75.23015
C        100.03220       79.48507       73.75764
O        100.95024       79.31921       72.96730
H         98.99174       79.04780       76.77458
H        101.43572       79.54732       75.40777
H        100.02708       80.64660       75.52483
N         98.74854       79.59256       73.32250
C         98.35568       79.58645       71.90713
C         97.45777       80.77491       71.51821
O         97.32015       81.00790       70.32494
C         97.69889       78.23760       71.50239
C         96.48653       77.87775       72.32221
O         95.82796       76.88415       72.06384
O         96.16487       78.65744       73.36273
H         98.04169       79.68060       74.05931
H         99.27117       79.68561       71.28248
H         98.44292       77.42070       71.61315
H         97.41066       78.29571       70.42924
N         96.78916       81.54240       72.43456
C         95.96959       82.69736       72.08748
C         94.48722       82.49483       72.35221
O         93.74997       83.45631       72.18513
H         96.84004       81.31745       73.43203
H         96.07166       82.96813       71.01410
H         96.33322       83.56364       72.68121
N         93.96012       81.27593       72.67851
C         92.52103       81.02744       72.77652
C         92.12771       80.23389       74.05401
O         92.95479       80.56738       75.12662
C         92.03966       80.36491       71.45280
C         92.89520       79.20231       70.88560
C         92.79268       77.87778       71.59695
N         92.45018       76.76314       70.90581
O         93.06895       77.78960       72.78110
H         94.58897       80.46913       72.73920
H         91.98371       81.99953       72.85362
H         92.13298       81.16562       70.68612
H         90.96602       80.08612       71.49314
H         93.96181       79.50283       70.83591
H         92.58052       79.04781       69.83133
H         92.24428       76.80414       69.89734
H         92.42244       75.84278       71.36411
N         90.73059       80.51948       74.41654
C         90.27790       79.97581       75.71877
C         89.27107       78.85424       75.51532
O         88.28195       79.04009       74.82219
C         89.68391       81.12169       76.58611
C         89.13514       80.59860       77.92877
C         90.75799       82.18400       76.88461
H         90.06529       80.33466       73.63188
H         91.13103       79.57258       76.30716
H         88.84737       81.60340       76.03429
H         89.93560       80.10339       78.51867
H         88.72204       81.43610       78.53031
H         88.31044       79.87549       77.76578
H         91.15342       82.62581       75.94700
H         90.32899       83.00716       77.49503
H         91.60470       81.73575       77.45158
N         89.44339       77.67938       76.17820
C         88.51769       76.55655       76.12123
C         87.80014       76.43667       77.44917
O         88.00765       77.25801       78.32611
C         89.31778       75.27563       75.82164
C         89.95626       75.34130       74.46373
N         91.30061       75.34840       74.34040
O         89.25317       75.38532       73.46517
H         90.24354       77.58785       76.81694
H         87.73800       76.70635       75.34359
H         88.67335       74.37282       75.84502
H         90.09318       75.15013       76.61048
H         91.90479       75.32970       75.17266
H         91.73751       75.38235       73.41205
N         86.90203       75.43182       77.64984
C         86.19740       75.24977       78.91132
C         87.18046       74.93322       80.02598
O         87.13245       75.58296       81.06192
C         85.15774       74.11887       78.77695
C         84.26447       74.04540       79.99177
C         83.42906       75.12977       80.31752
C         84.24814       72.90034       80.80264
C         82.59693       75.07127       81.43657
C         83.41367       72.84419       81.92395
C         82.58515       73.93077       82.24391
O         81.77442       73.89010       83.31999
H         86.70711       74.78223       76.87557
H         85.64918       76.18937       79.13966
H         85.68332       73.15480       78.59958
H         84.50717       74.31327       77.89663
H         83.41655       76.02162       79.70333
H         84.88191       72.05380       80.57027
H         81.95953       75.91406       81.67386
H         83.41152       71.95615       82.54251
H         81.73278       73.11972       83.90379
N         88.11575       73.95016       79.87078
C         89.09419       73.59920       80.89623
C         90.04553       74.74329       81.26508
O         90.79703       74.56509       82.21282
C         89.93202       72.33128       80.53743
C         90.97889       72.48214       79.40427
C         90.47957       72.34541       77.98858
O         89.23223       71.92327       77.71206
O         91.26161       72.51585       77.06730
H         88.09523       73.42463       78.99415
H         88.51219       73.34302       81.81042
H         89.28479       71.44577       80.36041
H         90.51881       72.10368       81.45573
H         91.73100       71.67192       79.52132
H         91.52304       73.44041       79.53002
N         90.07705       75.93077       80.58457
C         90.97553       77.02770       80.93666
C         90.22009       78.19480       81.55888
O         90.86415       79.03193       82.17765
C         91.75675       77.51833       79.69855
C         92.46625       76.38654       78.94223
C         93.26478       76.90779       77.78230
O         94.58293       76.65685       77.71071
O         92.72578       77.53311       76.88521
H         89.45373       76.07100       79.78831
H         91.69642       76.67553       81.70327
H         92.49866       78.27757       80.02095
H         91.04556       78.00620       78.99870
H         91.71277       75.67129       78.55218
H         93.14536       75.84405       79.62513
N         88.86773       78.32959       81.43457
C         88.09888       79.39273       82.04575
H         87.30503       78.94317       82.67978
H         88.72048       80.05539       82.68201
H         87.61703       80.00226       81.25280
H         88.33475       77.66546       80.86555
Ca        94.54862       79.00905       74.84495
O         94.43696       74.74958       74.93307
H         94.67512       74.84268       75.88861
H         93.87412       73.93590       74.90242

Ca 1.0



