%chk=holoCaM.loop3.water3.frame421.chk
%nprocshared=20
%mem=10GB
%nosave
#b3lyp/svp scf=(tight,noincore,xqc) Test 
#IOP(5/87=12) Density=Current Pop=(MK,readradii) iop(6/33=2) iop(6/42=6)

holoCaM.loop3.water3.frame421 

   0  1 
C         79.61612       96.84978       61.00047
C         79.13388       96.14739       62.23582
O         78.13037       95.45042       62.17407
H         80.64391       96.50408       60.75584
H         78.95768       96.62273       60.13431
H         79.63025       97.94567       61.16816
N         79.84002       96.24777       63.39666
C         79.48553       95.48589       64.58684
C         78.23150       96.02003       65.24634
O         78.20597       97.18363       65.62638
C         80.63453       95.48583       65.60172
C         80.45762       94.40298       66.63366
O         79.41078       93.54985       66.59273
O         81.34909       94.20645       67.43301
H         80.70910       96.80505       63.39270
H         79.35169       94.43431       64.25996
H         80.75762       96.48699       66.07132
H         81.57648       95.24175       65.06199
N         77.14579       95.21753       65.41361
C         75.89228       95.70513       65.97108
C         75.93188       95.88866       67.49022
O         75.08228       96.61000       67.98969
C         74.72102       94.79421       65.55431
C         74.59387       94.71487       64.01956
C         73.40987       93.84218       63.60168
C         73.29186       93.77927       62.07289
N         72.16137       92.94322       61.67322
H         77.19334       94.25529       65.05194
H         75.69081       96.70147       65.51514
H         73.77539       95.20730       65.96756
H         74.87266       93.77532       65.96894
H         75.51725       94.28568       63.57403
H         74.45380       95.74000       63.61171
H         72.47422       94.26700       64.02449
H         73.54997       92.81498       64.00236
H         74.22839       93.36300       61.64203
H         73.15190       94.80546       61.66575
H         72.10767       92.91407       60.62956
H         72.28941       91.96966       62.03372
H         71.27105       93.34472       62.04771
N         76.84462       95.25159       68.29080
C         76.92033       95.45709       69.74505
C         78.30616       95.91506       70.20682
O         78.47780       96.10943       71.40520
C         76.46374       94.19973       70.52544
C         77.29994       92.95946       70.36834
O         76.99588       91.87345       71.10353
O         78.24135       92.91466       69.59542
H         77.49465       94.58389       67.86073
H         76.21102       96.25677       70.05088
H         75.41831       93.95257       70.24181
H         76.45905       94.45642       71.60844
N         79.33078       96.14827       69.33684
C         80.63299       96.64939       69.75395
C         81.50767       95.66005       70.51150
O         82.58188       96.07181       70.92581
H         79.16935       96.05614       68.32561
H         80.47887       97.56109       70.37275
H         81.20682       96.95210       68.85219
N         81.15399       94.35877       70.73207
C         81.99437       93.43649       71.50273
C         83.35190       93.11427       70.85325
O         84.14515       92.45554       71.51209
C         81.22956       92.12390       71.84036
C         80.85712       91.26963       70.65435
N         80.25250       90.07253       70.83293
O         81.10747       91.64766       69.52650
H         80.24391       94.02962       70.39352
H         82.20046       93.92825       72.47878
H         80.29706       92.37452       72.39091
H         81.86665       91.50865       72.51163
H         80.03440       89.72681       71.77814
H         80.01467       89.48144       70.02170
N         83.68704       93.50087       69.58331
C         84.96920       93.19509       68.95135
C         84.86424       92.17129       67.82746
O         85.89680       91.80018       67.28943
H         83.01061       94.02366       69.02379
H         85.67283       92.76259       69.69372
H         85.42285       94.13690       68.57526
N         83.67202       91.61289       67.47563
C         83.51862       90.46140       66.58915
C         82.58822       90.79921       65.40549
O         81.58522       91.72285       65.69126
C         83.02047       89.28833       67.46481
C         84.10793       88.92451       68.45702
C         83.96352       89.18090       69.83146
C         85.30550       88.35101       67.99334
C         85.00585       88.88515       70.71888
C         86.34011       88.04875       68.88068
C         86.19670       88.32080       70.24728
O         87.19523       88.04814       71.11173
H         82.81893       91.94653       67.93250
H         84.48276       90.15666       66.12999
H         82.78436       88.38700       66.86057
H         82.08938       89.60125       67.98613
H         83.05953       89.62909       70.21609
H         85.43955       88.14024       66.93985
H         84.89187       89.10213       71.77374
H         87.25496       87.61014       68.50221
H         88.03649       87.66644       70.82138
N         82.15171       89.63797       64.61003
C         80.96675       89.79325       63.73112
C         80.57532       88.41115       63.20408
O         81.34420       87.79907       62.47696
C         81.11051       90.81899       62.53644
C         82.34645       90.56750       61.63137
C         81.06049       92.28446       63.00195
C         82.43013       91.51148       60.42762
H         82.97035       89.25579       64.08421
H         80.11593       90.13800       64.35693
H         80.19210       90.69311       61.91968
H         82.30853       89.54322       61.21814
H         83.27940       90.67501       62.22419
H         80.18701       92.43140       63.66480
H         81.99492       92.59129       63.51049
H         80.91076       92.97386       62.14688
H         82.58269       92.56293       60.74690
H         83.30112       91.23217       59.79926
H         81.50698       91.43988       59.81396
N         79.38251       87.84586       63.55147
C         78.93334       86.54677       63.04683
C         78.64221       86.60620       61.55187
O         78.76027       87.66617       60.96185
C         77.66843       86.09931       63.80923
O         76.62311       87.00900       63.60345
H         78.77684       88.35143       64.21110
H         79.72519       85.79101       63.24238
H         77.90932       86.04747       64.89443
H         77.35329       85.08864       63.46906
H         75.85531       86.67676       64.13694
N         78.23060       85.49563       60.87687
C         77.82280       85.51287       59.47279
C         76.60152       86.39982       59.27510
O         76.58194       87.17976       58.33365
C         77.51184       84.09145       58.99131
H         78.18105       84.60251       61.39025
H         78.66012       85.88131       58.83786
H         77.23188       84.10619       57.91524
H         78.41724       83.45536       59.09908
H         76.68249       83.63995       59.57492
N         75.55785       86.35230       60.15439
C         74.36668       87.19592       60.05273
C         74.73405       88.66884       60.03299
O         74.32331       89.37403       59.12211
C         73.42377       86.92246       61.23212
H         75.62975       85.70267       60.95328
H         73.81697       86.94304       59.11902
H         73.91430       87.16290       62.20008
H         72.50380       87.53852       61.13698
H         73.12780       85.85215       61.24184
N         75.54808       89.18412       60.99492
C         76.00385       90.57230       61.02914
C         76.65532       90.95905       59.71197
O         76.29973       91.99145       59.16083
C         76.99287       90.78474       62.19881
C         76.29589       90.65609       63.56553
C         77.26080       90.84157       64.69715
O         77.90046       91.87351       64.79642
O         77.40232       89.88066       65.62918
H         75.90028       88.53393       61.71039
H         75.13877       91.25114       61.19000
H         77.41819       91.81153       62.13315
H         77.82845       90.05549       62.11931
H         75.81446       89.66305       63.67418
H         75.50879       91.43461       63.64463
N         77.57465       90.14700       59.12448
C         78.20542       90.42429       57.85165
H         79.30744       90.40625       57.97915
H         77.91687       89.63681       57.12286
H         77.91064       91.41093       57.43862
H         77.81168       89.26131       59.57725
Ca        79.87964       91.41342       67.13310
O         77.02797       89.56315       69.14553
H         77.03847       88.91713       69.89539
H         77.81379       90.14265       69.30656
O         79.69293       88.49932       67.00235
H         80.27023       87.69840       67.06278
H         78.98536       88.34839       67.67745
O         76.01044       91.97830       67.58731
H         75.41282       91.91949       68.37401
H         75.50197       91.53743       66.86193

Ca 1.0



