%chk=holoCaM-CaMKII.loop3.water2.frame25.chk
%nprocshared=20
%mem=10GB
%nosave
#b3lyp/svp scf=(tight,noincore,xqc) Test 
#IOP(5/87=12) Density=Current Pop=(MK,readradii) iop(6/33=2) iop(6/42=6)

holoCaM-CaMKII.loop3.water2.frame25 

   0  1 
C         29.88415       70.32844       30.62214
C         29.13236       71.18253       31.59471
O         28.13635       70.74158       32.15050
H         30.92780       70.19756       30.97992
H         29.40884       69.33126       30.52019
H         29.90186       70.82824       29.63084
N         29.57976       72.43605       31.85893
C         28.93632       73.32799       32.80862
C         27.53079       73.69233       32.33597
O         27.37378       74.14380       31.21023
C         29.81331       74.58364       32.99365
C         29.35872       75.47163       34.11471
O         29.97116       76.49975       34.35148
O         28.30660       75.13148       34.88269
H         30.43842       72.75356       31.38053
H         28.89406       72.81542       33.79339
H         29.84679       75.14555       32.04175
H         30.85110       74.27658       33.24229
N         26.46734       73.54822       33.17744
C         25.08285       73.89444       32.84416
C         24.97035       75.32570       32.33746
O         24.33960       75.54095       31.31208
C         24.19104       73.66586       34.09104
C         22.69203       73.92158       33.84901
C         21.86014       73.46493       35.06387
C         20.34155       73.61480       34.86256
N         19.91471       75.01434       34.83128
H         26.66220       73.19865       34.12780
H         24.71830       73.20924       32.04699
H         24.53519       74.30883       34.92717
H         24.31685       72.60258       34.39385
H         22.36387       73.33463       32.96453
H         22.53241       75.00134       33.64561
H         22.16564       74.01142       35.98165
H         22.06279       72.38282       35.22330
H         19.82836       73.11356       35.71366
H         20.02942       73.09722       33.92833
H         18.87477       75.04716       34.72406
H         20.17024       75.48409       35.73046
H         20.34614       75.52131       34.02739
N         25.60474       76.34061       32.98404
C         25.53715       77.74563       32.57519
C         26.83105       78.27175       31.95984
O         26.83778       79.42419       31.54664
C         25.11085       78.62256       33.77620
C         26.03777       78.56765       34.97749
O         25.76727       79.23567       35.95954
O         27.13694       77.77664       34.98647
H         26.17788       76.07882       33.79214
H         24.76919       77.86790       31.77921
H         24.10141       78.29526       34.10651
H         25.02641       79.67911       33.43761
N         27.95212       77.50582       31.83010
C         29.17408       77.98945       31.19668
C         29.87702       79.11870       31.93557
O         30.85307       79.62109       31.39641
H         27.92779       76.52913       32.13778
H         28.91751       78.33696       30.17124
H         29.89855       77.15887       31.08758
N         29.43739       79.60677       33.13354
C         29.96759       80.83627       33.71924
C         31.30212       80.67007       34.43831
O         31.79222       81.67233       34.94035
C         28.89785       81.50109       34.62456
C         28.75756       80.89266       35.99590
N         28.68411       81.67483       37.09760
O         28.69412       79.68704       36.11829
H         28.60368       79.19135       33.56065
H         30.09619       81.55964       32.88321
H         27.92078       81.44732       34.09569
H         29.13604       82.57871       34.74986
H         28.70196       82.70171       37.02064
H         28.57273       81.25134       38.03114
N         31.96129       79.47214       34.52579
C         33.23666       79.33953       35.21784
C         33.26148       78.16079       36.16326
O         34.17168       77.35266       36.03562
H         31.58442       78.63784       34.05480
H         33.48976       80.25817       35.78753
H         34.03876       79.19327       34.46033
N         32.31281       77.98368       37.13273
C         32.35954       76.86441       38.07284
C         31.18604       75.87223       37.82327
O         29.99545       76.42552       38.32949
C         32.33439       77.37165       39.53837
C         33.51438       78.21972       39.94515
C         33.31894       79.54987       40.35646
C         34.81107       77.67899       39.97193
C         34.39951       80.32391       40.78837
C         35.89101       78.45502       40.40821
C         35.68712       79.78038       40.82054
O         36.71537       80.53664       41.25563
H         31.52873       78.65072       37.19438
H         33.29799       76.28859       37.92258
H         32.30608       76.50284       40.23164
H         31.39593       77.94722       39.69261
H         32.32841       79.98758       40.35456
H         34.98434       76.65266       39.67420
H         34.23308       81.34491       41.10876
H         36.88345       78.02285       40.43507
H         37.61983       80.19637       41.30851
N         31.48518       74.61483       38.53448
C         30.48835       73.53069       38.44257
C         30.20386       73.06540       39.85360
O         31.12854       72.72036       40.57712
C         30.96885       72.33441       37.54892
C         31.04327       72.79231       36.07129
C         30.01946       71.11946       37.69776
C         31.48468       71.70146       35.08921
H         32.44780       74.25870       38.32550
H         29.53719       73.90247       38.00465
H         31.97518       71.99913       37.88702
H         31.75946       73.63616       35.98538
H         30.04261       73.15490       35.76017
H         28.98892       71.37753       37.37799
H         30.37788       70.24782       37.11593
H         29.99092       70.76344       38.74853
H         32.48298       71.30650       35.36795
H         30.75168       70.86984       35.04641
H         31.54242       72.12362       34.06559
N         28.91373       72.97611       40.27820
C         28.51322       72.50294       41.59271
C         27.81348       71.15438       41.47301
O         27.69476       70.62738       40.37544
C         27.62852       73.57329       42.25700
O         26.45327       73.78953       41.51872
H         28.16308       73.21373       39.61668
H         29.40310       72.34534       42.24054
H         28.20630       74.52187       42.36631
H         27.34535       73.27232       43.28574
H         26.62555       74.55772       40.91323
N         27.35982       70.51816       42.58915
C         26.76256       69.18376       42.58526
C         25.53697       69.09878       41.70122
O         25.46731       68.19119       40.88556
C         26.39037       68.76879       44.01001
H         27.47577       70.99531       43.49585
H         27.51638       68.45085       42.21836
H         27.29755       68.77526       44.65073
H         25.63873       69.46382       44.44073
H         25.97272       67.73899       44.00702
N         24.52925       70.00737       41.80557
C         23.34718       69.98028       40.95068
C         23.73036       70.07607       39.48272
O         23.26661       69.25830       38.69985
C         22.39452       71.12304       41.32140
H         24.62044       70.75982       42.50609
H         22.78910       69.03160       41.11983
H         22.87813       72.11257       41.18024
H         21.47884       71.07539       40.69259
H         22.08491       71.02280       42.38430
N         24.58555       71.04402       39.04031
C         24.93650       71.20495       37.62712
C         25.65668       69.99611       37.03479
O         25.75837       69.92887       35.81729
C         25.82415       72.44727       37.40777
C         25.13689       73.74943       37.83896
C         26.01272       74.92904       37.55062
O         25.64232       75.79467       36.77548
O         27.20576       75.04667       38.15862
H         24.97491       71.69553       39.73720
H         23.98579       71.34277       37.06451
H         26.06562       72.52715       36.32629
H         26.77750       72.31749       37.96306
H         24.91356       73.74795       38.92444
H         24.18052       73.85164       37.28710
N         26.20593       69.02598       37.81746
C         26.88293       67.85477       37.29836
H         27.93650       67.85320       37.64828
H         26.37829       66.94277       37.68195
H         26.87758       67.81554       36.18924
H         26.16941       69.12131       38.83486
Ca        28.50857       77.13269       36.72034
O         28.16811       77.93625       39.86968
H         27.38008       77.62258       40.37977
H         28.89664       77.97378       40.53803
O         25.62963       78.14810       38.49872
H         25.82897       79.11718       38.54368
H         24.65101       78.09732       38.36134

Ca 1.0



