%chk=holoCaM.loop3.water2.frame181.chk
%nprocshared=20
%mem=10GB
%nosave
#b3lyp/svp scf=(tight,noincore,xqc) Test 
#IOP(5/87=12) Density=Current Pop=(MK,readradii) iop(6/33=2) iop(6/42=6)

holoCaM.loop3.water2.frame181 

   0  1 
C         43.03773       69.62602       83.07859
C         42.86860       71.09434       82.84205
O         43.72670       71.69081       82.21223
H         42.19378       69.08096       82.60674
H         43.98927       69.26354       82.63196
H         43.05070       69.42029       84.16856
N         41.77391       71.74414       83.33003
C         41.50167       73.15876       83.11109
C         41.60540       73.91065       84.42157
O         40.64075       74.49995       84.88832
C         40.14308       73.29452       82.37816
C         39.67771       74.71495       82.15893
O         40.41998       75.60174       81.47042
O         38.60177       75.06951       82.61220
H         41.09015       71.20487       83.88277
H         42.28273       73.59913       82.47976
H         39.36465       72.75821       82.96263
H         40.23034       72.79894       81.38682
N         42.81023       73.94559       85.05502
C         43.06281       74.70404       86.27295
C         42.96904       76.19380       86.00873
O         42.22797       76.85959       86.71930
C         44.42812       74.33161       86.88451
C         44.40849       72.85767       87.33058
C         45.64396       72.46506       88.14105
C         45.49985       71.01695       88.63550
N         46.62080       70.63338       89.48983
H         43.58976       73.41401       84.63687
H         42.30139       74.43556       87.04057
H         44.58205       74.96466       87.78658
H         45.26238       74.52307       86.17373
H         44.31500       72.18771       86.44862
H         43.52040       72.70419       87.98297
H         45.72467       73.13926       89.02165
H         46.56055       72.57037       87.52073
H         45.44156       70.32753       87.76357
H         44.55687       70.91836       89.21991
H         46.47814       69.64939       89.81411
H         47.51775       70.69228       88.95649
H         46.66109       71.25967       90.32681
N         43.65440       76.78605       84.98179
C         43.54611       78.22098       84.69196
C         42.10557       78.67845       84.47092
O         41.85527       79.87309       84.55206
C         44.43173       78.65383       83.50129
C         44.01747       78.02674       82.19608
O         43.64947       78.72795       81.26768
O         44.08026       76.69407       82.03260
H         44.26598       76.19394       84.40206
H         43.91542       78.74921       85.59886
H         45.49085       78.38796       83.70250
H         44.37418       79.76090       83.40100
N         41.10360       77.78683       84.23278
C         39.70049       78.14230       84.21341
C         39.35120       79.11388       83.12376
O         38.79493       80.15945       83.42877
H         41.32727       76.79260       84.10567
H         39.41476       78.55554       85.20574
H         39.10083       77.22154       84.05315
N         39.59594       78.80500       81.82019
C         39.13928       79.62970       80.70891
C         38.06827       78.91294       79.88909
O         37.47641       79.54947       79.02915
C         40.33163       80.11008       79.85476
C         40.97353       79.03340       79.00671
N         41.05571       79.18571       77.66358
O         41.43628       78.03034       79.52732
H         40.08959       77.93059       81.61696
H         38.65341       80.54181       81.11714
H         41.09732       80.55051       80.53020
H         39.97392       80.92196       79.18618
H         40.68939       80.03084       77.20161
H         41.49727       78.46310       77.07835
N         37.75967       77.59621       80.10001
C         36.69039       76.88952       79.41903
C         37.20196       75.86983       78.42941
O         36.37971       75.14272       77.88948
H         38.29238       77.03766       80.77672
H         36.02986       77.58391       78.85855
H         36.07008       76.38719       80.19308
N         38.51758       75.80922       78.06769
C         39.00546       74.94564       76.99721
C         40.17033       74.09691       77.45966
O         40.75470       74.37672       78.49430
C         39.44215       75.85121       75.82855
C         38.25926       76.61803       75.28347
C         38.09082       77.98485       75.56710
C         37.30253       75.95983       74.49425
C         36.98019       78.67721       75.07289
C         36.20230       76.65732       73.98728
C         36.03590       78.01905       74.27769
O         34.97639       78.70253       73.79936
H         39.19283       76.46338       78.49091
H         38.20605       74.25350       76.65293
H         39.91613       75.28057       75.00086
H         40.20827       76.55656       76.22049
H         38.80545       78.51138       76.18493
H         37.41685       74.90839       74.26235
H         36.85311       79.72676       75.30819
H         35.47978       76.13785       73.37061
H         34.30583       78.28633       73.23879
N         40.54853       73.01508       76.72429
C         41.69008       72.16437       77.04182
C         42.60986       72.16432       75.83586
O         42.17223       71.85059       74.73678
C         41.22885       70.73284       77.43768
C         40.38431       70.81200       78.73968
C         42.45322       69.81053       77.64416
C         39.76978       69.48045       79.17194
H         39.99080       72.77465       75.88929
H         42.24965       72.56261       77.91863
H         40.60746       70.31499       76.61520
H         39.54019       71.51734       78.58914
H         41.01398       71.20216       79.57096
H         42.14587       68.77489       77.88815
H         43.05822       69.73882       76.71650
H         43.10364       70.19552       78.45935
H         39.10951       69.08759       78.37070
H         40.54512       68.72819       79.41829
H         39.16141       69.64086       80.08739
N         43.91527       72.50327       75.99173
C         44.88174       72.60311       74.91207
C         45.96860       71.55756       75.06546
O         45.97601       70.81517       76.03834
C         45.50170       74.01505       74.93977
O         46.20801       74.20727       76.14098
H         44.24552       72.69727       76.93813
H         44.38507       72.44260       73.93061
H         44.68057       74.76292       74.83868
H         46.20302       74.15887       74.09169
H         46.07179       75.14878       76.42183
N         46.93685       71.45496       74.11645
C         48.07929       70.55920       74.22969
C         48.97017       70.97225       75.38669
O         49.45754       70.10562       76.09796
C         48.89853       70.58377       72.93662
H         46.86619       72.05875       73.28209
H         47.73128       69.50985       74.36340
H         49.28710       71.60308       72.72845
H         49.75386       69.87846       73.01709
H         48.26221       70.25864       72.08546
N         49.23065       72.29228       75.62649
C         50.13327       72.75825       76.67844
C         49.71833       72.35783       78.09153
O         50.50942       72.57480       78.99928
C         50.24455       74.29031       76.62102
H         48.79086       72.99377       75.00998
H         51.13301       72.31742       76.47591
H         49.25214       74.75380       76.82215
H         50.96891       74.66611       77.37419
H         50.58584       74.61470       75.61542
N         48.49454       71.82470       78.36810
C         48.04623       71.48945       79.72054
C         47.53084       70.05595       79.83739
O         47.20050       69.65836       80.94620
C         46.98110       72.51874       80.16081
C         45.71962       72.46217       79.29513
C         44.81190       73.62423       79.53398
O         44.50596       74.36726       78.61681
O         44.25734       73.81901       80.72883
H         47.83015       71.72228       77.59531
H         48.89391       71.58635       80.43323
H         47.43997       73.52780       80.06948
H         46.70217       72.36523       81.22746
H         45.17244       71.51270       79.48688
H         45.99259       72.49397       78.23172
N         47.41965       69.22677       78.75605
C         46.92498       67.86671       78.83305
H         46.01274       67.77283       78.20634
H         47.69859       67.17349       78.44079
H         46.67228       67.56113       79.86937
H         47.67940       69.55283       77.81890
Ca        42.38051       75.01042       80.61298
O         43.75438       76.97812       77.31295
H         43.52030       77.08231       76.35659
H         44.04699       77.88044       77.59750
O         45.93982       76.88469       79.56823
H         46.37484       76.22638       78.97056
H         46.32277       76.69700       80.46143

Ca 1.0



