%chk=holoCaM-CaMKII.loop1.water2.frame278.chk
%nprocshared=20
%mem=10GB
%nosave
#b3lyp/svp scf=(tight,noincore,xqc) Test 
#IOP(5/87=12) Density=Current Pop=(MK,readradii) iop(6/33=2) iop(6/42=6)

holoCaM-CaMKII.loop1.water2.frame278 

   0  1 
C         49.32410       29.74704       73.24042
C         50.30445       29.92336       72.11648
O         50.28802       29.11735       71.20206
H         48.28973       29.75840       72.83741
H         49.50980       28.77581       73.74516
H         49.41667       30.55703       73.99469
N         51.16165       30.98342       72.11140
C         52.15299       31.27378       71.07299
C         53.38796       30.36371       71.18923
O         54.46667       30.85498       71.49703
C         52.53687       32.77179       71.20219
C         53.52457       33.21857       70.16938
O         53.24941       33.15319       68.98457
O         54.72160       33.69747       70.55516
H         51.05803       31.66671       72.87831
H         51.69387       31.15858       70.06864
H         52.96345       32.96014       72.21157
H         51.62336       33.39536       71.09245
N         53.31799       29.02266       70.94927
C         54.48050       28.14437       71.06427
C         55.48292       28.38599       69.94629
O         56.61343       27.93431       70.06798
C         54.05935       26.65985       71.03368
C         53.11349       26.30637       72.19274
C         52.68110       24.83662       72.12147
C         51.75772       24.42664       73.28201
N         50.48331       25.15001       73.27156
H         52.42530       28.60748       70.67427
H         54.96842       28.34426       72.04505
H         54.96489       26.01748       71.11053
H         53.55805       26.44421       70.06328
H         52.21338       26.94793       72.14021
H         53.63082       26.49616       73.15850
H         53.58969       24.19695       72.16258
H         52.16338       24.64339       71.15612
H         52.27526       24.59027       74.25301
H         51.54951       23.33837       73.18383
H         50.62688       26.16678       73.46177
H         50.00143       25.02171       72.35217
H         49.87159       24.76732       74.02795
N         55.12222       29.01927       68.79332
C         56.04612       29.22965       67.68585
C         57.11739       30.22177       68.09156
O         58.29540       29.89910       68.03990
C         55.29258       29.76905       66.45072
C         54.24623       28.80453       65.96433
O         53.07052       29.13150       65.94207
O         54.60165       27.57685       65.54218
H         54.14593       29.32903       68.67733
H         56.51036       28.25972       67.39631
H         56.00802       29.95648       65.62121
H         54.80572       30.72706       66.71227
N         56.75090       31.47137       68.48426
C         57.67078       32.53857       68.83445
C         57.52055       33.67414       67.84631
O         58.50754       34.08931       67.25631
H         55.74467       31.68403       68.52624
H         58.72714       32.19091       68.84569
H         57.41930       32.89550       69.85602
N         56.28688       34.19218       67.58892
C         56.00469       35.24785       66.62633
C         55.25958       36.41794       67.28609
O         54.88535       37.34272       66.57927
C         55.24045       34.62368       65.42709
C         53.93791       33.97948       65.80983
O         53.02445       34.65291       66.23572
O         53.76150       32.65512       65.70077
H         55.47769       33.78529       68.06956
H         56.94829       35.65532       66.20195
H         55.89681       33.84120       64.98582
H         55.05640       35.38895       64.64315
N         55.05648       36.47375       68.64073
C         54.42590       37.59083       69.33632
C         52.91623       37.70428       69.17356
O         52.35384       38.61696       69.76063
H         55.44535       35.73644       69.24193
H         54.92072       38.53738       69.02825
H         54.60381       37.46244       70.42640
N         52.19174       36.83793       68.41174
C         50.74067       36.91336       68.22740
C         50.04490       35.58377       68.50830
O         50.68310       34.54448       68.59071
C         50.39900       37.40199       66.79162
C         50.36926       38.92585       66.71027
O         51.34128       36.92399       65.86355
H         52.69394       36.10147       67.92158
H         50.30038       37.62371       68.96124
H         49.36480       37.09086       66.50731
H         50.93233       36.16830       65.37716
H         49.56928       39.31345       67.37894
H         51.34216       39.36668       67.00706
H         50.12444       39.23863       65.67217
N         48.69318       35.59302       68.71852
C         47.86338       34.42570       69.01708
C         46.67756       34.42402       68.05302
O         46.00588       35.44152       67.94692
C         47.35445       34.49138       70.49161
C         48.55244       34.54460       71.47898
C         46.45412       33.27364       70.80161
C         48.14186       34.70194       72.94600
H         48.21924       36.50998       68.71370
H         48.44787       33.48319       68.91502
H         46.75161       35.41840       70.61769
H         49.18904       35.42075       71.23379
H         49.17028       33.62588       71.37524
H         45.59125       33.22337       70.10709
H         47.03529       32.33104       70.71850
H         46.02032       33.33622       71.81847
H         47.53160       35.62037       73.07859
H         47.57229       33.82356       73.31007
H         49.05210       34.78693       73.57623
N         46.33236       33.30229       67.35784
C         45.21789       33.24387       66.40692
C         44.09899       32.34419       66.92827
O         44.20746       31.82954       68.03201
C         45.74234       32.76991       65.03142
C         46.80365       33.74985       64.49368
O         46.24991       31.46223       65.15907
H         46.87469       32.44340       67.51583
H         44.76341       34.25058       66.27291
H         44.90732       32.75627       64.29932
H         46.94548       31.31068       64.46863
H         47.68422       33.78497       65.16775
H         47.14267       33.43004       63.48544
H         46.37624       34.77135       64.40550
N         42.95807       32.15555       66.19565
C         41.80325       31.39986       66.69123
C         42.07414       29.91755       66.91198
O         41.22893       29.28192       67.52849
C         40.58981       31.50139       65.73162
C         40.08051       32.92993       65.54460
O         40.93263       30.95833       64.47933
H         42.88698       32.62346       65.28172
H         41.51639       31.84375       67.67189
H         39.74793       30.92573       66.19104
H         40.19751       30.35000       64.20512
H         40.84595       33.57847       65.07357
H         39.18724       32.91283       64.88408
H         39.78639       33.36180       66.52402
N         43.18302       29.28589       66.42757
C         43.42895       27.85841       66.64246
C         44.60092       27.62765       67.57674
O         44.77636       26.50416       68.02860
C         43.58017       27.10592       65.30374
C         44.78776       27.56261       64.46488
C         44.87843       26.76715       63.15691
C         46.07591       27.22787       62.31455
N         46.15790       26.47340       61.06427
H         43.87412       29.83319       65.89756
H         42.55752       27.40781       67.16507
H         42.64956       27.25224       64.71228
H         43.68176       26.01883       65.51746
H         45.72302       27.41458       65.04748
H         44.68995       28.63862       64.21149
H         43.94401       26.91452       62.57168
H         44.98775       25.68498       63.38890
H         47.01546       27.08253       62.89292
H         45.97147       28.31114       62.08116
H         46.98131       26.81000       60.51471
H         46.27934       25.45431       61.26597
H         45.29087       26.62026       60.49781
N         45.42784       28.64548       67.94108
C         46.44371       28.51622       68.97106
C         45.72271       28.43045       70.30029
O         45.91231       27.46140       71.02136
C         47.44125       29.69895       68.88656
C         48.13792       29.66060       67.50797
C         49.16227       30.72739       67.26634
O         49.00712       31.51967       66.34922
O         50.31912       30.73545       67.93839
H         45.30890       29.57145       67.51461
H         47.04609       27.59398       68.80467
H         48.19938       29.60265       69.69070
H         46.90651       30.66183       69.02032
H         47.37416       29.74691       66.71101
H         48.64549       28.68134       67.37516
N         44.80143       29.38005       70.63622
C         43.96214       29.31027       71.81483
H         42.89746       29.26240       71.49615
H         44.17456       28.41528       72.43544
H         44.10706       30.22114       72.43025
H         44.64219       30.17330       69.99861
Ca        52.02787       31.76250       66.86242
O         50.71513       30.28204       64.25805
H         49.74053       30.24455       64.08698
H         51.02257       31.08583       63.76877
O         50.52947       33.74768       64.54301
H         49.86280       34.40661       64.22458
H         51.37204       34.01740       64.09834

Ca 1.0



