%chk=holoCaM-CaMKII.loop3.water1.frame426.chk
%nprocshared=20
%mem=10GB
%nosave
#b3lyp/svp scf=(tight,noincore,xqc) Test 
#IOP(5/87=12) Density=Current Pop=(MK,readradii) iop(6/33=2) iop(6/42=6)

holoCaM-CaMKII.loop3.water1.frame426 

   0  1 
C         71.14203       60.13943       44.63341
C         71.26287       59.98332       46.11838
O         71.93619       59.06592       46.56655
H         70.50594       61.01112       44.36984
H         72.15189       60.30171       44.20104
H         70.69409       59.22441       44.19679
N         70.66485       60.87625       46.95126
C         70.82342       60.82158       48.39368
C         70.11822       59.60114       48.97317
O         68.91422       59.46331       48.80747
C         70.34102       62.14624       49.01150
C         70.68655       62.26354       50.46045
O         71.22677       61.23418       51.12491
O         70.48907       63.30973       51.04324
H         70.13827       61.66185       46.53746
H         71.91237       60.76917       48.60708
H         69.24865       62.28890       48.86549
H         70.87698       62.97138       48.49307
N         70.83455       58.66692       49.66234
C         70.26695       57.43931       50.21392
C         69.19039       57.73596       51.24904
O         68.10264       57.18868       51.13490
C         71.39709       56.56217       50.80697
C         70.91961       55.14223       51.16518
C         72.09851       54.25598       51.60475
C         71.70475       52.78441       51.83394
N         70.74847       52.61938       52.92914
H         71.84758       58.82626       49.77689
H         69.82322       56.85563       49.37565
H         71.85452       57.05688       51.69202
H         72.18266       56.45475       50.02547
H         70.45952       54.68416       50.26194
H         70.15673       55.19828       51.96916
H         72.56261       54.67016       52.52584
H         72.86529       54.26253       50.79841
H         72.62867       52.21352       52.07755
H         71.28052       52.35552       50.89848
H         71.13417       53.03147       53.80929
H         69.83453       53.06572       52.69213
H         70.58167       51.59798       53.08022
N         69.41531       58.62040       52.26477
C         68.43310       58.93105       53.30480
C         67.78869       60.31073       53.12373
O         66.96330       60.67650       53.94945
C         69.07562       58.72685       54.69550
C         70.26199       59.61282       54.95321
O         70.12918       60.82250       54.99950
O         71.47709       59.07027       55.16127
H         70.31876       59.11502       52.28914
H         67.58232       58.21617       53.25288
H         69.40697       57.66792       54.76837
H         68.32147       58.89954       55.49352
N         68.03187       61.08362       52.02303
C         67.29769       62.30501       51.70498
C         67.53875       63.50769       52.60458
O         66.88710       64.51590       52.36952
H         68.67517       60.73521       51.30355
H         66.21038       62.06708       51.71296
H         67.55601       62.61717       50.67113
N         68.40687       63.49758       53.65616
C         68.49760       64.61351       54.60228
C         69.14686       65.89224       54.06659
O         69.11647       66.87601       54.79309
C         69.20339       64.17282       55.90382
C         70.66018       63.80089       55.76216
N         71.34989       63.40533       56.85510
O         71.22267       63.85143       54.67874
H         68.92652       62.63528       53.85414
H         67.45478       64.86787       54.89889
H         68.65772       63.29804       56.31915
H         69.13207       64.99814       56.64526
H         70.89165       63.36178       57.77673
H         72.34246       63.14492       56.78456
N         69.76341       65.97074       52.85096
C         70.37333       67.19912       52.35110
C         71.86487       67.10409       52.07126
O         72.41492       68.11809       51.66266
H         69.78390       65.14761       52.24648
H         70.23189       68.03588       53.06556
H         69.86169       67.48198       51.40541
N         72.58957       65.95351       52.21098
C         74.00075       65.88508       51.81618
C         74.47983       64.46326       51.59955
O         73.87168       63.53427       52.10949
C         74.95284       66.59812       52.81123
C         75.00046       65.93681       54.17821
C         76.13356       65.19645       54.56858
C         73.92765       66.05900       55.07817
C         76.18553       64.58342       55.82524
C         73.98984       65.45872       56.34123
C         75.11311       64.71510       56.71773
O         75.14831       64.12968       57.93280
H         72.10163       65.09496       52.49813
H         74.07472       66.36876       50.81627
H         74.70097       67.67276       52.93010
H         75.96973       66.56437       52.36115
H         76.97433       65.07985       53.89624
H         73.04866       66.63041       54.81183
H         77.05889       64.00619       56.10419
H         73.16118       65.56932       57.02907
H         75.90006       63.59496       58.22695
N         75.56997       64.22557       50.81017
C         76.08805       62.88387       50.56456
C         77.55645       62.78459       50.93204
O         78.22730       63.79539       51.09513
C         75.84371       62.43445       49.09031
C         76.60086       63.32160       48.06441
C         74.33124       62.39416       48.81027
C         76.46999       62.83450       46.61842
H         76.03038       65.02476       50.34747
H         75.55661       62.16021       51.22127
H         76.22671       61.39615       48.98541
H         77.68442       63.30863       48.30943
H         76.24424       64.37189       48.11601
H         74.11460       61.96020       47.81355
H         73.83062       61.74928       49.56241
H         73.88865       63.41167       48.86076
H         76.82827       61.78724       46.52846
H         75.42229       62.89919       46.26140
H         77.08708       63.47711       45.95522
N         78.10646       61.55360       51.09698
C         79.50809       61.29719       51.39516
C         80.05684       60.29670       50.38610
O         79.33912       59.91628       49.47389
C         79.61110       60.75957       52.83335
O         78.89762       59.56099       52.96686
H         77.48291       60.73558       51.03212
H         80.11073       62.23088       51.34703
H         79.19065       61.52411       53.52526
H         80.67738       60.59612       53.10241
H         79.04228       59.25945       53.90127
N         81.31024       59.78254       50.50940
C         81.81134       58.71694       49.64393
C         80.90514       57.49674       49.71485
O         80.54226       56.96414       48.67563
C         83.23104       58.32128       50.05835
H         81.91041       60.12086       51.27661
H         81.86266       59.07568       48.59123
H         83.61300       57.52178       49.38718
H         83.90605       59.19917       49.97292
H         83.25033       57.95139       51.10569
N         80.46379       57.03526       50.91970
C         79.59378       55.87353       51.07935
C         78.32940       55.97939       50.24407
O         78.05664       55.07686       49.46492
C         79.20778       55.71034       52.55945
H         80.75165       57.55001       51.76690
H         80.14970       54.96172       50.76852
H         78.56533       54.81442       52.69717
H         80.11733       55.58988       53.18473
H         78.65047       56.60059       52.92563
N         77.49608       57.04472       50.38084
C         76.21205       57.15669       49.68871
C         76.42648       57.22395       48.18754
O         75.94561       56.34579       47.48484
C         75.42550       58.37736       50.22367
C         75.12636       58.19045       51.72620
C         74.54975       59.40583       52.37956
O         75.16547       59.95481       53.27883
O         73.33482       59.86430       52.04984
H         77.78704       57.78999       51.03028
H         75.59899       56.25474       49.91750
H         74.46677       58.49880       49.67255
H         76.03124       59.29034       50.06673
H         76.05792       57.95879       52.27794
H         74.43688       57.33133       51.86878
N         77.16693       58.22252       47.63278
C         77.46848       58.31289       46.21804
H         78.57015       58.27618       46.07793
H         77.01762       57.48435       45.63268
H         77.08981       59.27611       45.81891
H         77.55369       58.95105       48.24206
Ca        72.52729       61.46772       53.42801
O         74.29172       61.68184       55.78233
H         75.19293       61.37470       55.51496
H         74.14324       62.49940       55.24381

Ca 1.0



