%chk=holoCaM.loop3.water2.frame262.chk
%nprocshared=20
%mem=10GB
%nosave
#b3lyp/svp scf=(tight,noincore,xqc) Test 
#IOP(5/87=12) Density=Current Pop=(MK,readradii) iop(6/33=2) iop(6/42=6)

holoCaM.loop3.water2.frame262 

   0  1 
C         42.93244       -2.00773       78.78870
C         41.54534       -2.56651       78.70430
O         41.12776       -3.24385       79.63312
H         43.66955       -2.83384       78.84551
H         43.16556       -1.37309       77.90799
H         43.01231       -1.37887       79.70106
N         40.76252       -2.30397       77.62029
C         39.37193       -2.71305       77.52471
C         39.17362       -3.63811       76.34086
O         39.54936       -3.29459       75.22880
C         38.51395       -1.45145       77.41540
C         37.05708       -1.69122       77.64398
O         36.54619       -2.91697       77.87018
O         36.31865       -0.72363       77.72400
H         41.15023       -1.74237       76.84641
H         39.06373       -3.23222       78.46066
H         38.67797       -0.93437       76.44639
H         38.82641       -0.76648       78.23412
N         38.56563       -4.83984       76.52821
C         38.34679       -5.83078       75.47831
C         37.54416       -5.23885       74.33299
O         37.98516       -5.34019       73.19607
C         37.60862       -7.06917       76.05495
C         38.36987       -7.79057       77.19615
C         39.68260       -8.48103       76.78110
C         39.50079       -9.70278       75.86042
N         38.74128      -10.77480       76.51185
H         38.22366       -5.04528       77.47673
H         39.32466       -6.16809       75.07317
H         37.38931       -7.79603       75.24414
H         36.63213       -6.72802       76.46117
H         37.69887       -8.53852       77.66036
H         38.60998       -7.07235       78.00192
H         40.19610       -8.83116       77.70286
H         40.35887       -7.74683       76.29689
H         40.51353      -10.09120       75.61301
H         39.01127       -9.41536       74.90595
H         39.18021      -11.02458       77.42847
H         37.74683      -10.49281       76.65946
H         38.74690      -11.62087       75.89851
N         36.36727       -4.58915       74.56325
C         35.52440       -4.05207       73.49438
C         35.45247       -2.53132       73.47172
O         34.83093       -2.00886       72.55651
C         34.10894       -4.66726       73.58465
C         33.34753       -4.34343       74.84902
O         32.22341       -4.79270       74.99937
O         33.87464       -3.56390       75.81187
H         36.06640       -4.48058       75.54154
H         35.94466       -4.33878       72.50591
H         34.19985       -5.77134       73.50674
H         33.50335       -4.31114       72.72283
N         36.05005       -1.74841       74.41639
C         35.97718       -0.29478       74.38565
C         34.54000        0.16750       74.40287
O         34.11700        0.78242       73.43343
H         36.57641       -2.18857       75.17760
H         36.47711        0.06751       73.46024
H         36.52140        0.13847       75.25140
N         33.72221       -0.11607       75.45841
C         32.29312        0.19971       75.45999
C         31.91392        1.26379       76.47869
O         30.75059        1.63969       76.51259
C         31.46626       -1.09011       75.66612
C         31.50836       -1.62825       77.08421
N         30.36527       -1.77361       77.79525
O         32.57202       -1.93697       77.59642
H         34.12950       -0.59850       76.27176
H         32.00939        0.60643       74.46509
H         31.82358       -1.86489       74.95470
H         30.40912       -0.87126       75.40413
H         29.45140       -1.52994       77.38681
H         30.39150       -2.13849       78.75900
N         32.82972        1.79653       77.33634
C         32.51696        2.82743       78.31063
C         32.76386        2.36056       79.72794
O         32.75335        3.20211       80.61508
H         33.80739        1.47437       77.31116
H         31.46791        3.18780       78.23596
H         33.18397        3.69016       78.09853
N         32.94818        1.04121       80.03382
C         33.21696        0.56299       81.38899
C         34.25638       -0.58587       81.37000
O         35.02446       -0.51803       80.22001
C         31.91604        0.02330       81.99555
C         30.89968        1.11519       82.21783
C         29.74419        1.18863       81.42353
C         31.09283        2.06137       83.23929
C         28.79469        2.18953       81.65066
C         30.13477        3.05230       83.47430
C         28.98019        3.11776       82.68085
O         28.04239        4.06113       82.90176
H         32.84859        0.33335       79.29093
H         33.61889        1.39592       82.00972
H         32.10145       -0.47589       82.97106
H         31.51608       -0.74366       81.29624
H         29.58082        0.47610       80.62475
H         31.97532        2.01909       83.86608
H         27.90912        2.23815       81.02992
H         30.28783        3.76405       84.27611
H         28.12005        4.70674       83.61873
N         35.13733       -0.52912       82.54510
C         36.09144       -1.66179       82.68001
C         35.76987       -2.45935       83.93809
O         35.66051       -1.86434       85.00279
C         37.55459       -1.11562       82.72523
C         37.88510       -0.35829       81.40980
C         38.56514       -2.26623       82.94763
C         39.24847        0.33669       81.40626
H         34.59208       -0.34063       83.41777
H         36.03786       -2.34570       81.80275
H         37.63669       -0.40661       83.57849
H         37.13505        0.44288       81.24995
H         37.83568       -1.06296       80.55036
H         38.36020       -2.80013       83.89745
H         38.52070       -2.99822       82.11207
H         39.60168       -1.88550       83.03587
H         39.30328        1.07070       82.23781
H         40.08478       -0.38491       81.49063
H         39.37761        0.88087       80.44644
N         35.66430       -3.81901       83.89840
C         35.34430       -4.62385       85.07268
C         36.56738       -5.35738       85.59092
O         37.63488       -5.25507       85.00201
C         34.20161       -5.59915       84.73675
O         34.61458       -6.53929       83.77779
H         35.85999       -4.30534       83.01114
H         35.00072       -3.96805       85.90209
H         33.30932       -5.02864       84.38732
H         33.87725       -6.15302       85.64151
H         34.19360       -6.28990       82.91566
N         36.47914       -6.09581       86.73184
C         37.59612       -6.82146       87.32749
C         38.12387       -7.88282       86.38539
O         39.32340       -7.93153       86.16005
C         37.15790       -7.47669       88.64156
H         35.56603       -6.13108       87.21279
H         38.41298       -6.10714       87.57869
H         36.33553       -8.20361       88.47101
H         38.01632       -8.00509       89.10914
H         36.80391       -6.69660       89.34939
N         37.26986       -8.76246       85.79009
C         37.70455       -9.79589       84.85648
C         38.43500       -9.19574       83.66826
O         39.55590       -9.60745       83.39968
C         36.49809      -10.60732       84.36845
H         36.26344       -8.67932       86.00091
H         38.38453      -10.50142       85.38502
H         35.98430      -11.07782       85.23404
H         35.77128       -9.95902       83.83393
H         36.83251      -11.41470       83.68212
N         37.86707       -8.20694       82.91818
C         38.52575       -7.61759       81.75037
C         39.85831       -6.96557       82.09544
O         40.66331       -6.78353       81.19271
C         37.62652       -6.55806       81.07838
C         36.33815       -7.15840       80.49779
C         35.47390       -6.08354       79.90841
O         34.97631       -5.11606       80.69914
O         35.20146       -6.08972       78.71911
H         36.93219       -7.87133       83.19303
H         38.72939       -8.43734       81.02462
H         38.18069       -6.07375       80.24364
H         37.38410       -5.77403       81.82981
H         35.74795       -7.67887       81.27858
H         36.60809       -7.89898       79.71599
N         40.14781       -6.56017       83.36301
C         41.40240       -5.94950       83.74973
H         42.11991       -5.88146       82.90598
H         41.20951       -4.92709       84.13674
H         41.86671       -6.55565       84.55606
H         39.44291       -6.66954       84.09722
Ca        34.95016       -2.61241       79.36635
O         32.46786       -3.30327       81.25586
H         32.74071       -3.76524       82.08769
H         31.52266       -3.56572       81.12284
O         31.75808       -4.81551       78.59886
H         31.65243       -4.86936       77.61671
H         30.83687       -4.90646       78.95016

Ca 1.0



