%chk=holoCaM-CaMKII.loop1.water2.frame456.chk
%nprocshared=20
%mem=10GB
%nosave
#b3lyp/svp scf=(tight,noincore,xqc) Test 
#IOP(5/87=12) Density=Current Pop=(MK,readradii) iop(6/33=2) iop(6/42=6)

holoCaM-CaMKII.loop1.water2.frame456 

   0  1 
C         69.23506       55.38284       36.64572
C         70.69089       55.66362       36.86270
O         71.01168       56.70977       37.39066
H         68.61209       56.23215       37.00026
H         69.04951       55.23502       35.56103
H         68.94358       54.46564       37.19841
N         71.62077       54.74305       36.48980
C         73.07723       54.88331       36.60626
C         73.62254       55.91357       35.58756
O         74.27393       55.51343       34.63145
C         73.68429       53.47075       36.34521
C         75.18134       53.38723       36.43028
O         75.89330       54.34677       37.03905
O         75.75270       52.39305       36.01356
H         71.24912       53.85524       36.11542
H         73.34628       55.17567       37.64241
H         73.39245       53.16615       35.31725
H         73.25830       52.72400       37.05290
N         73.37232       57.25291       35.69949
C         73.73019       58.22367       34.66614
C         75.20266       58.60302       34.63223
O         75.57550       59.28139       33.68552
C         72.88895       59.50769       34.81302
C         71.40076       59.23568       34.55248
C         70.58111       60.52365       34.68623
C         69.11888       60.35075       34.24459
N         68.40254       59.34830       35.03455
H         72.83814       57.59838       36.49694
H         73.47988       57.77941       33.67583
H         73.22143       60.25288       34.05676
H         73.04334       59.94413       35.82516
H         71.01929       58.47723       35.26631
H         71.29355       58.83994       33.51848
H         71.02814       61.30650       34.03486
H         70.62384       60.88039       35.73869
H         69.08559       60.06807       33.16861
H         68.60986       61.33362       34.35493
H         67.39844       59.34708       34.74321
H         68.78965       58.39403       34.85690
H         68.46152       59.57758       36.05282
N         76.10016       58.21296       35.58414
C         77.53207       58.50822       35.46770
C         78.32677       57.24991       35.16935
O         79.52898       57.35014       34.95855
C         78.06351       59.26388       36.70610
C         78.03093       58.50904       38.01157
O         77.60326       57.36805       38.08466
O         78.50531       59.10748       39.12019
H         75.77355       57.64883       36.38082
H         77.71400       59.17633       34.59852
H         77.48119       60.20258       36.82570
H         79.12232       59.54624       36.51403
N         77.72121       56.03321       35.09479
C         78.40590       54.81331       34.74100
C         79.50366       54.47754       35.71009
O         80.62348       54.25872       35.27271
H         76.71365       55.94451       35.26933
H         78.80365       54.89153       33.70651
H         77.67031       53.97921       34.75598
N         79.23425       54.35969       37.04061
C         80.19810       53.83701       38.00074
C         79.78263       52.44473       38.46822
O         80.57329       51.80109       39.14441
C         80.44403       54.83128       39.15940
C         79.26518       55.12637       40.05090
O         78.17919       54.60428       39.87064
O         79.42006       55.98465       41.07612
H         78.28497       54.57689       37.36755
H         81.17811       53.69635       37.49578
H         80.79275       55.79387       38.72660
H         81.25645       54.43030       39.80254
N         78.58047       51.89670       38.11118
C         78.19115       50.52642       38.38042
C         77.01533       50.41699       39.32452
O         76.50641       49.31401       39.46302
H         77.89265       52.44586       37.58188
H         79.02626       49.92992       38.80563
H         77.91881       50.06795       37.40466
N         76.58609       51.47352       40.07976
C         75.55761       51.34487       41.10881
C         74.51678       52.48905       41.00079
O         75.12500       53.72705       41.23697
C         76.21860       51.27855       42.51489
C         77.13473       50.05454       42.66645
O         76.92590       52.45377       42.82191
H         77.08075       52.37077       40.00831
H         75.00281       50.39033       40.97175
H         75.41326       51.16235       43.27125
H         77.72699       52.49652       42.23741
H         76.56471       49.12089       42.47414
H         77.98927       50.10479       41.95848
H         77.54083       50.01574       43.69870
N         73.42554       52.29903       41.96049
C         72.36101       53.32173       41.88284
C         72.21145       53.89287       43.27976
O         71.96190       53.13460       44.20707
C         71.01949       52.72653       41.34287
C         71.20408       52.20585       39.89051
C         69.89395       53.78322       41.39638
C         69.99284       51.43540       39.35785
H         73.04598       51.32366       41.93975
H         72.64491       54.14847       41.19388
H         70.72810       51.87607       41.99882
H         72.05925       51.50046       39.84969
H         71.43179       53.05538       39.20866
H         68.92258       53.36241       41.07150
H         69.73651       54.13785       42.43409
H         70.14211       54.65512       40.75398
H         69.78022       50.56301       40.01234
H         69.08957       52.07293       39.29028
H         70.21418       51.06222       38.33576
N         72.33929       55.23394       43.49816
C         72.17574       55.84584       44.81264
C         70.73645       56.28265       44.99305
O         69.95807       56.18573       44.05875
C         73.12672       57.06947       44.99358
C         74.60279       56.73740       44.76215
O         72.74452       58.14538       44.17313
H         72.45456       55.84989       42.68650
H         72.41234       55.09543       45.59882
H         73.04174       57.42389       46.04272
H         73.02568       57.94959       43.24317
H         75.22029       57.64478       44.94130
H         74.93862       55.93082       45.44436
H         74.75212       56.42472       43.70987
N         70.31081       56.79426       46.17815
C         68.97300       57.35549       46.35320
C         68.79858       58.56977       45.45312
O         67.74071       58.73026       44.86106
C         68.71374       57.76108       47.82306
C         68.71150       56.54150       48.75301
O         69.67513       58.69189       48.25114
H         70.97564       56.82128       46.96564
H         68.20240       56.59453       46.09196
H         67.69639       58.21939       47.86345
H         69.27612       59.18767       49.01307
H         67.93893       55.81296       48.42517
H         69.69922       56.03636       48.76181
H         68.46974       56.86026       49.78868
N         69.82609       59.45182       45.29252
C         69.75781       60.65983       44.47366
C         69.36456       60.31751       43.04818
O         68.39210       60.86560       42.54897
C         71.11485       61.41166       44.47592
C         71.55951       61.83685       45.88918
C         72.87640       62.62116       45.86156
C         73.32999       62.95444       47.29134
N         74.57589       63.71901       47.28793
H         70.71003       59.23079       45.76921
H         68.99192       61.34486       44.90106
H         71.01024       62.32456       43.84850
H         71.90570       60.77243       44.02549
H         71.71766       60.94449       46.52694
H         70.76863       62.46475       46.35328
H         72.73428       63.55942       45.28218
H         73.66472       62.01080       45.36789
H         73.48549       62.00830       47.85785
H         72.54007       63.54430       47.80697
H         74.85746       63.91466       48.27598
H         75.33517       63.17069       46.82246
H         74.43690       64.62770       46.78948
N         70.06749       59.38543       42.34921
C         69.74417       58.96981       40.98897
C         68.31587       58.45545       40.91292
O         67.53263       59.02455       40.16496
C         70.76119       57.90881       40.50704
C         72.14872       58.54658       40.28184
C         73.19081       57.55318       39.85341
O         73.77415       57.69387       38.79238
O         73.53909       56.54023       40.66302
H         70.85643       58.93264       42.82562
H         69.81783       59.84640       40.30617
H         70.40926       57.48754       39.54950
H         70.81839       57.07730       41.24419
H         72.51026       59.03279       41.20915
H         72.05230       59.33079       39.49877
N         67.89705       57.41108       41.67775
C         66.53058       56.92640       41.69191
H         65.86985       57.49461       41.00343
H         66.51158       55.85721       41.39699
H         66.12011       57.02399       42.71953
H         68.56808       56.94689       42.29774
Ca        75.32709       54.59334       39.17482
O         76.89374       55.50783       42.55590
H         77.44751       56.09896       43.12336
H         76.41727       54.92758       43.20018
O         76.16750       58.07775       41.12399
H         77.13494       58.23736       41.25883
H         75.72740       58.87962       41.50275

Ca 1.0



