%chk=holoCaM-CaMKII.loop3.water3.frame359.chk
%nprocshared=20
%mem=10GB
%nosave
#b3lyp/svp scf=(tight,noincore,xqc) Test 
#IOP(5/87=12) Density=Current Pop=(MK,readradii) iop(6/33=2) iop(6/42=6)

holoCaM-CaMKII.loop3.water3.frame359 

   0  1 
C         46.59752       67.39736       18.23804
C         45.67167       67.59385       17.07797
O         46.13442       67.54450       15.94937
H         47.37305       68.19247       18.22624
H         46.05285       67.44933       19.20375
H         47.08751       66.40578       18.15420
N         44.35069       67.85719       17.28329
C         43.40372       68.11213       16.20755
C         43.07176       69.58980       16.30396
O         42.39654       70.00924       17.23387
C         42.21131       67.15260       16.38289
C         41.13274       67.06788       15.33116
O         40.19013       66.33343       15.57569
O         41.13678       67.71924       14.14609
H         44.00709       67.93615       18.25347
H         43.88229       67.89736       15.23082
H         41.71855       67.40679       17.34707
H         42.61919       66.12200       16.47523
N         43.70964       70.45481       15.46998
C         43.70091       71.90628       15.61328
C         42.30704       72.47262       15.42196
O         41.89420       73.29964       16.22255
C         44.74780       72.51418       14.64788
C         45.12799       73.96943       14.97511
C         46.33149       74.41140       14.11764
C         46.92290       75.77163       14.52830
N         45.98429       76.87623       14.33968
H         44.32525       70.05145       14.75411
H         44.05818       72.14674       16.64041
H         44.42808       72.40370       13.58850
H         45.68183       71.92551       14.79035
H         45.43459       74.01806       16.04353
H         44.25742       74.63995       14.81958
H         46.04798       74.42525       13.04318
H         47.15005       73.66813       14.24702
H         47.82566       75.95817       13.90383
H         47.25166       75.73491       15.59121
H         45.16118       76.77077       14.97372
H         46.46918       77.77236       14.57627
H         45.67154       76.91498       13.34282
N         41.49490       71.99946       14.43233
C         40.11349       72.43900       14.24000
C         39.09394       71.37848       14.66092
O         37.90580       71.64176       14.53115
C         39.89372       72.92927       12.78997
C         40.06169       71.89177       11.70962
O         39.88058       72.20877       10.54539
O         40.40599       70.62478       11.99621
H         41.86069       71.25322       13.82642
H         39.90071       73.31421       14.89247
H         40.60362       73.75973       12.58675
H         38.86234       73.33726       12.70991
N         39.46202       70.20052       15.25057
C         38.49349       69.25812       15.79806
C         37.67419       68.50552       14.76507
O         36.77065       67.78915       15.17177
H         40.45623       70.00129       15.41469
H         37.81178       69.81507       16.47743
H         39.01827       68.50505       16.42056
N         37.91464       68.60180       13.42614
C         37.06649       67.95812       12.42229
C         37.05163       66.43135       12.47824
O         36.18087       65.85112       11.84184
C         37.49243       68.36754       10.99811
C         38.81681       67.73661       10.63196
N         38.88296       66.81697        9.64787
O         39.82855       68.01854       11.25498
H         38.68237       69.20319       13.10847
H         36.03364       68.33248       12.60038
H         37.55023       69.47310       10.90304
H         36.71151       68.01397       10.28952
H         38.04610       66.53215        9.11860
H         39.78094       66.36908        9.44151
N         38.00932       65.71293       13.13450
C         38.03118       64.25767       13.15655
C         39.31289       63.62568       12.62989
O         39.36059       62.40625       12.64035
H         38.74696       66.21326       13.64266
H         37.18621       63.83418       12.57215
H         37.90349       63.92592       14.20934
N         40.40316       64.34578       12.20807
C         41.65953       63.67772       11.83212
C         42.88514       64.58656       11.94845
O         42.75827       65.77424       12.19324
C         41.54455       62.92495       10.47871
C         41.14492       63.76880        9.28609
C         41.96919       64.80075        8.80264
C         39.93484       63.49671        8.61909
C         41.58246       65.55053        7.68307
C         39.55121       64.24546        7.50332
C         40.36883       65.27647        7.03272
O         39.97503       65.99822        5.96395
H         40.37093       65.37119       12.25001
H         41.86397       62.91576       12.61753
H         40.79201       62.11947       10.61015
H         42.49962       62.40930       10.24481
H         42.91063       65.02573        9.28318
H         39.28259       62.70231        8.96056
H         42.22200       66.34689        7.32480
H         38.61412       64.02523        7.00662
H         40.49883       66.73391        5.61659
N         44.13023       64.01672       11.89817
C         45.37552       64.70671       12.23829
C         46.34627       64.65848       11.06634
O         46.53268       63.60383       10.47863
C         45.98859       64.04213       13.51124
C         45.00994       64.21163       14.70787
C         47.36915       64.64972       13.84596
C         45.44060       63.47863       15.97944
H         44.19814       63.00679       11.70743
H         45.18648       65.76909       12.49064
H         46.13158       62.95658       13.31026
H         44.01522       63.80092       14.43541
H         44.88125       65.29204       14.93723
H         48.08160       64.49711       13.00950
H         47.28250       65.73826       14.04702
H         47.82882       64.15353       14.72280
H         45.53623       62.39055       15.77848
H         46.39729       63.86873       16.37896
H         44.66900       63.62695       16.76450
N         47.05400       65.78007       10.73047
C         48.00740       65.85210        9.62450
C         49.42956       66.09993       10.12192
O         49.64444       66.19634       11.31840
C         47.56327       66.97263        8.66814
O         47.63231       68.22818        9.29318
H         46.92033       66.62831       11.29899
H         48.01718       64.89553        9.05883
H         46.53221       66.77235        8.29608
H         48.21163       67.00174        7.76923
H         46.76060       68.37910        9.74096
N         50.45998       66.19401        9.22938
C         51.85586       66.42558        9.60274
C         52.05118       67.77140       10.27534
O         52.61007       67.81338       11.36261
C         52.75137       66.36801        8.35749
H         50.24211       66.07471        8.22914
H         52.19481       65.61367       10.28485
H         52.66142       65.37414        7.87088
H         52.46542       67.15054        7.62227
H         53.81480       66.52074        8.64370
N         51.61983       68.91708        9.67340
C         51.80770       70.25428       10.23346
C         51.28116       70.33748       11.64779
O         51.99996       70.80604       12.51973
C         51.10920       71.29968        9.35700
H         51.11865       68.82892        8.77549
H         52.89315       70.50149       10.24595
H         51.52880       71.27288        8.32884
H         50.01646       71.10501        9.30426
H         51.27263       72.31777        9.77223
N         50.05409       69.83781       11.95661
C         49.52044       69.82486       13.31347
C         50.48538       69.13787       14.26523
O         50.90348       69.76099       15.23165
C         48.16167       69.10780       13.35311
C         47.06698       69.86667       12.58246
C         45.74098       69.17390       12.69684
O         44.63200       69.74200       12.19906
O         45.63695       68.11564       13.29420
H         49.50460       69.40860       11.19673
H         49.37469       70.87166       13.66405
H         47.83855       69.03544       14.41540
H         48.26589       68.07669       12.94733
H         47.32210       69.98015       11.51030
H         46.96507       70.87910       13.02649
N         50.90244       67.86312       14.04378
C         51.84522       67.19758       14.91463
H         52.79634       67.77101       14.95002
H         51.42276       67.11265       15.93780
H         52.06150       66.17850       14.52916
H         50.55747       67.35383       13.22240
Ca        42.75757       68.81564       13.03287
O         41.11712       69.12461        8.74635
H         40.73941       69.76502        9.39926
H         41.47007       69.69536        8.01931
O         43.19020       71.25017       10.15931
H         42.59317       71.90012        9.71146
H         43.97955       71.78364       10.42909
O         43.76784       67.72938        9.34999
H         44.02330       68.23686        8.53897
H         44.36017       68.08023       10.06025

Ca 1.0



