%chk=holoCaM.loop4.water3.frame441.chk
%nprocshared=20
%mem=10GB
%nosave
#b3lyp/svp scf=(tight,noincore,xqc) Test 
#IOP(5/87=12) Density=Current Pop=(MK,readradii) iop(6/33=2) iop(6/42=6)

holoCaM.loop4.water3.frame441 

   -3  1 
C         33.93757       78.10843       35.66801
C         34.83155       77.07340       36.28274
O         34.44447       76.47249       37.27122
H         32.98549       78.19387       36.23534
H         34.44562       79.09539       35.67567
H         33.70416       77.82221       34.62145
N         36.05743       76.82290       35.74218
C         37.00595       75.84465       36.27472
C         38.31996       75.94689       35.51444
O         38.33654       75.80264       34.30025
C         36.43906       74.40707       36.22102
C         37.43305       73.34459       36.64115
O         37.72525       72.45975       35.85358
O         38.00080       73.33419       37.86599
H         36.33375       77.38326       34.92032
H         37.19635       76.10484       37.33161
H         36.10907       74.19312       35.18171
H         35.55472       74.32546       36.88560
N         39.46381       76.21279       36.20136
C         40.76744       76.46717       35.60307
C         41.76996       75.37886       35.99336
O         42.68870       75.13838       35.22278
C         41.26924       77.87667       36.07135
C         40.22376       79.00633       35.85270
C         42.61894       78.26846       35.44136
C         39.81633       79.25113       34.39927
H         39.39284       76.27729       37.21797
H         40.68328       76.46487       34.49462
H         41.43162       77.82984       37.17231
H         40.62731       79.95666       36.26823
H         39.30617       78.77048       36.42774
H         43.41266       77.54657       35.71970
H         42.55068       78.31027       34.33520
H         42.94052       79.26379       35.81869
H         39.34550       78.34779       33.96383
H         39.07177       80.07507       34.36649
H         40.68685       79.55169       33.78286
N         41.70499       74.73785       37.19963
C         42.71818       73.80293       37.68734
C         42.16070       72.41491       38.02804
O         42.93828       71.57882       38.46769
C         43.44792       74.45791       38.88240
C         42.52248       74.98439       39.94209
O         41.77405       74.23438       40.53741
O         42.50353       76.30192       40.22190
H         40.94022       74.96204       37.84891
H         43.49782       73.62269       36.91540
H         44.02404       75.32500       38.49261
H         44.17389       73.74630       39.33058
N         40.86140       72.06477       37.79732
C         40.34492       70.71073       37.99530
C         40.28010       70.21992       39.43672
O         39.94218       69.05931       39.62382
H         40.23441       72.75306       37.36935
H         40.97772       70.01073       37.40764
H         39.31331       70.65099       37.58466
N         40.57948       71.01622       40.50173
C         40.58980       70.55411       41.89527
C         39.21440       70.18129       42.48095
O         39.17300       69.82413       43.65040
C         41.30469       71.59723       42.79186
C         40.64645       72.94650       42.88186
O         39.62219       73.19895       42.26933
O         41.22393       73.90562       43.62845
H         40.87483       71.97899       40.30967
H         41.22931       69.64502       41.94828
H         42.33252       71.75065       42.39516
H         41.40187       71.18954       43.82096
N         38.06229       70.19544       41.74802
C         36.76216       69.78770       42.27708
C         36.09013       70.80837       43.18441
O         34.98869       70.52737       43.63921
H         38.10365       70.42318       40.75122
H         36.86376       68.80838       42.79471
H         36.06956       69.63679       41.42175
N         36.66506       72.00460       43.48753
C         36.06022       73.03075       44.33743
C         36.03255       74.37933       43.61823
O         36.48150       74.44633       42.47890
C         36.80173       73.06518       45.69265
C         38.32554       73.25761       45.58685
C         39.02017       73.16794       46.92485
N         40.36981       73.22906       46.98467
O         38.37910       73.01749       47.95527
H         37.59547       72.20429       43.10753
H         35.00309       72.77288       44.57215
H         36.62297       72.08123       46.18169
H         36.36271       73.84783       46.34689
H         38.55413       74.23524       45.11168
H         38.75167       72.44326       44.96802
H         40.92954       73.33718       46.12767
H         40.85887       73.15139       47.88826
N         35.50306       75.49623       44.20717
C         35.39283       76.78696       43.52350
C         36.29023       77.81554       44.19301
O         36.03828       78.19297       45.33082
C         33.91361       77.27938       43.50482
C         33.77382       78.63972       42.79678
C         32.98214       76.26796       42.82320
H         35.14997       75.43227       45.17531
H         35.72594       76.68353       42.46806
H         33.56504       77.39899       44.55494
H         34.11972       78.57379       41.74322
H         32.71431       78.97229       42.80466
H         34.36150       79.42013       43.31851
H         31.93174       76.62685       42.86774
H         33.24896       76.14421       41.75862
H         33.02792       75.28102       43.32777
N         37.36526       78.31687       43.52201
C         38.24239       79.35755       44.05001
C         37.54927       80.72047       43.98229
O         36.48943       80.83145       43.38612
C         39.55011       79.35807       43.21222
C         40.66396       80.23877       43.71572
N         41.20358       80.04049       44.94007
O         41.11517       81.11378       42.99339
H         37.58759       77.91386       42.60127
H         38.49634       79.09386       45.10038
H         39.30497       79.62425       42.15963
H         39.95987       78.33073       43.21614
H         40.85612       79.29259       45.55663
H         41.98403       80.62851       45.26621
N         38.11246       81.81020       44.57036
C         37.58705       83.17686       44.46345
C         37.59257       83.67090       43.02604
O         36.61741       84.28237       42.61225
C         38.33255       84.13352       45.42604
C         39.84251       84.04834       45.36188
C         40.52620       83.38430       46.39680
C         40.57955       84.59355       44.29882
C         41.91124       83.24096       46.35746
C         41.97329       84.45591       44.26602
C         42.64090       83.77005       45.29208
O         43.97887       83.61034       45.26568
H         38.96343       81.64880       45.12174
H         36.52761       83.19367       44.80820
H         38.01739       83.81091       46.44240
H         37.98520       85.18404       45.31463
H         39.98160       82.95015       47.22641
H         40.08130       85.12331       43.49801
H         42.41393       82.70670       47.15353
H         42.53413       84.87541       43.44096
H         44.52415       83.94845       44.54194
N         38.61820       83.37058       42.18339
C         38.60731       83.68672       40.75764
C         37.39288       83.05024       40.10976
O         36.64674       83.72005       39.41014
C         39.88262       83.12643       40.06402
C         41.19019       83.79339       40.52058
C         41.22035       85.25565       40.17848
O         41.34086       86.17633       41.15300
O         41.14181       85.61582       39.01448
H         39.40613       82.83116       42.56152
H         38.56830       84.78611       40.59838
H         39.79838       83.26092       38.96240
H         39.96368       82.03314       40.25689
H         42.04634       83.29939       40.01146
H         41.32718       83.65394       41.61011
N         37.16612       81.72681       40.30001
C         36.12731       80.96113       39.61954
C         34.72338       81.27867       40.11406
O         33.77472       80.82300       39.48969
C         36.44154       79.46334       39.80290
C         37.82401       79.15176       39.19003
C         38.36065       77.81179       39.55508
O         39.46513       77.49261       39.15402
O         37.66625       76.94760       40.30992
H         37.82248       81.23157       40.92147
H         36.17719       81.19545       38.53182
H         35.67071       78.81741       39.32550
H         36.44883       79.25056       40.89403
H         38.60138       79.86445       39.51915
H         37.74307       79.23655       38.08535
N         34.50085       82.02612       41.23051
C         33.17001       82.34050       41.70156
H         32.59674       81.40810       41.88788
H         33.23251       82.91277       42.65218
H         32.64039       82.96027       40.94790
H         35.29132       82.37144       41.78403
Ca        37.65878       74.90937       39.41224
O         39.90022       76.08204       42.04783
H         40.82508       76.29361       42.33130
H         39.41506       75.91127       42.89412
O         36.57838       72.35771       40.14670
H         36.86485       71.75954       39.41228
H         35.70833       71.98903       40.43580
O         34.91328       75.43871       40.18460
H         34.90336       74.48884       39.91012
H         35.35643       75.91735       39.44389

Ca 1.0



