%chk=holoCaM.loop1.water2.frame168.chk
%nprocshared=20
%mem=10GB
%nosave
#b3lyp/svp scf=(tight,noincore,xqc) Test 
#IOP(5/87=12) Density=Current Pop=(MK,readradii) iop(6/33=2) iop(6/42=6)

holoCaM.loop1.water2.frame168 

   0  1 
C         10.81011       65.09706      -10.23475
C         11.94488       64.13279      -10.07051
O         12.29132       63.44228      -11.01833
H          9.99848       64.83668       -9.52402
H         11.16570       66.12753      -10.01993
H         10.41073       65.06560      -11.27025
N         12.59593       64.05963       -8.87881
C         13.73632       63.18313       -8.65195
C         13.29586       61.71488       -8.66886
O         12.61609       61.27689       -7.75162
C         14.41123       63.59532       -7.33240
C         15.59527       62.76704       -6.98416
O         16.56440       62.71357       -7.72161
O         15.59705       62.10761       -5.81757
H         12.29338       64.69806       -8.12541
H         14.47065       63.37343       -9.46339
H         13.67444       63.52552       -6.50268
H         14.74259       64.65467       -7.41195
N         13.58780       60.92877       -9.74628
C         13.05903       59.58000       -9.95487
C         13.78349       58.46766       -9.19093
O         13.25571       57.36483       -9.16360
C         13.03731       59.26189      -11.47695
C         14.43751       59.13353      -12.12431
C         14.32423       58.99888      -13.65284
C         15.68481       58.88633      -14.36632
N         16.39939       57.65902      -14.01291
H         14.03732       61.39413      -10.53718
H         11.99619       59.59548       -9.62528
H         12.47716       60.08140      -11.98090
H         12.48041       58.31628      -11.65589
H         14.94869       58.25027      -11.69058
H         15.05589       60.02727      -11.91552
H         13.81854       59.90936      -14.04500
H         13.70070       58.11713      -13.91343
H         16.31796       59.77164      -14.13575
H         15.49691       58.88216      -15.46334
H         15.79703       56.82419      -14.19640
H         17.26339       57.58711      -14.59734
H         16.68592       57.67512      -13.01087
N         15.02347       58.63833       -8.64551
C         15.80509       57.54258       -8.04431
C         16.41319       57.89641       -6.68109
O         17.13032       57.06822       -6.13569
C         16.90237       57.07392       -9.03114
C         17.68043       58.21925       -9.59867
O         17.75967       58.34370      -10.80893
O         17.99486       59.26145       -8.81469
H         15.47858       59.55503       -8.76347
H         15.16849       56.64850       -7.86598
H         16.40736       56.55268       -9.88237
H         17.57379       56.33181       -8.54955
N         16.13282       59.06097       -6.03750
C         16.60913       59.36883       -4.69515
C         18.07208       59.75670       -4.61192
O         18.78295       59.21267       -3.77944
H         15.46940       59.71954       -6.46488
H         16.36702       58.53567       -3.99971
H         16.05035       60.25024       -4.32372
N         18.55965       60.76690       -5.38501
C         19.86007       61.40636       -5.18904
C         19.69949       62.91288       -4.93109
O         20.70939       63.59767       -4.83672
C         20.82135       61.09993       -6.36158
C         20.26578       61.30498       -7.73918
O         20.31344       60.39196       -8.54558
O         19.76158       62.48683       -8.11819
H         17.95275       61.15050       -6.12246
H         20.37483       61.00818       -4.28670
H         21.12901       60.03390       -6.28509
H         21.74240       61.71145       -6.24649
N         18.47351       63.49413       -4.74197
C         18.27680       64.90657       -4.44521
C         18.57118       65.84619       -5.60040
O         18.43430       67.04379       -5.40179
H         17.63051       62.91091       -4.73036
H         18.89873       65.18429       -3.56575
H         17.21195       65.06877       -4.16859
N         18.98787       65.39609       -6.81986
C         19.34269       66.27672       -7.92957
C         18.56846       65.92759       -9.19780
O         17.83848       64.94875       -9.23003
C         20.87098       66.19841       -8.17305
C         21.64560       66.72160       -6.95994
O         21.27255       64.87750       -8.42195
H         19.10515       64.39315       -6.96274
H         19.08812       67.33048       -7.68276
H         21.16200       66.84466       -9.03176
H         20.94494       64.64658       -9.32814
H         21.42729       66.11755       -6.05389
H         22.73683       66.66940       -7.15720
H         21.37313       67.77992       -6.76018
N         18.66923       66.75460      -10.27982
C         17.94598       66.58792      -11.53753
C         18.93662       66.59271      -12.70537
O         19.78794       67.46409      -12.79182
C         16.84886       67.69713      -11.63429
C         15.72815       67.35085      -10.60572
C         16.26149       67.82279      -13.05329
C         14.56202       68.33566      -10.54771
H         19.24974       67.60115      -10.18717
H         17.40405       65.61672      -11.56908
H         17.30578       68.68231      -11.39436
H         16.16680       67.30094       -9.58723
H         15.30443       66.34801      -10.84413
H         17.05466       68.06984      -13.78775
H         15.75568       66.89367      -13.35924
H         15.53053       68.65379      -13.10901
H         14.00796       68.36457      -11.50794
H         13.84430       67.99754       -9.76904
H         14.92496       69.35024      -10.28703
N         18.79897       65.65555      -13.68649
C         19.61291       65.52597      -14.89182
C         18.78959       65.98199      -16.08684
O         17.70032       66.48364      -15.89136
C         20.01772       64.03519      -15.07614
C         20.85308       63.52684      -13.89032
O         18.85646       63.25808      -15.29536
H         18.00579       65.01851      -13.61889
H         20.52402       66.15952      -14.83582
H         20.66384       63.92632      -15.97160
H         18.85534       62.45927      -14.70985
H         20.26544       63.58228      -12.95213
H         21.14862       62.46937      -14.06578
H         21.77598       64.13343      -13.78249
N         19.24248       65.82843      -17.36109
C         18.44545       66.16880      -18.54085
C         17.16174       65.34256      -18.61352
O         16.11034       65.91931      -18.85584
C         19.26670       65.98283      -19.83850
C         20.46165       66.94274      -19.89257
O         19.72107       64.65624      -19.94887
H         20.18174       65.43268      -17.49816
H         18.16373       67.24589      -18.50236
H         18.60164       66.24727      -20.69746
H         19.47028       64.32743      -20.85122
H         21.00191       66.81910      -20.85392
H         20.10967       67.99465      -19.82140
H         21.17623       66.75369      -19.06512
N         17.17084       63.99224      -18.40818
C         15.97468       63.14685      -18.50346
C         14.88539       63.63534      -17.55826
O         13.78205       63.92835      -17.99553
C         16.29354       61.66537      -18.15511
C         17.39186       60.99037      -18.99721
C         17.08040       60.95755      -20.49647
C         18.18551       60.21233      -21.25728
N         17.91055       60.19211      -22.69262
H         18.07059       63.55816      -18.15978
H         15.58321       63.18922      -19.54296
H         15.35892       61.07029      -18.26021
H         16.61664       61.59233      -17.09364
H         17.49526       59.94501      -18.62996
H         18.36820       61.49166      -18.83575
H         17.01616       61.99491      -20.88714
H         16.10804       60.44443      -20.66219
H         18.25585       59.16673      -20.88179
H         19.16325       60.71427      -21.08019
H         17.87376       61.16941      -23.06353
H         18.67697       59.67393      -23.17974
H         17.00203       59.70841      -22.87793
N         15.16239       63.76035      -16.23549
C         14.23345       64.24255      -15.21124
C         13.72413       65.63975      -15.53740
O         12.55038       65.90666      -15.32246
C         14.97961       64.25362      -13.85745
C         15.28504       62.82517      -13.37556
C         16.34808       62.76567      -12.31329
O         17.50774       63.00215      -12.59024
O         16.06147       62.30585      -11.09362
H         16.12531       63.52803      -15.94822
H         13.35446       63.56587      -15.11919
H         14.39429       64.76892      -13.06357
H         15.91453       64.81222      -14.02062
H         15.65770       62.18732      -14.20283
H         14.33521       62.37427      -13.01409
N         14.55164       66.57121      -16.08030
C         14.16811       67.92908      -16.40259
H         13.12099       68.15317      -16.11480
H         14.84122       68.63162      -15.86650
H         14.28478       68.09475      -17.49474
H         15.50583       66.29531      -16.30469
Ca        17.60115       61.19341       -9.89364
O         20.99497       62.39575      -10.75052
H         21.35977       61.81845      -11.46568
H         21.75229       62.51507      -10.12492
O         19.22718       60.70107      -12.65511
H         19.35715       60.00673      -11.96305
H         18.84258       60.21834      -13.42846

Ca 1.0



