%chk=holoCaM.loop1.water2.frame175.chk
%nprocshared=20
%mem=10GB
%nosave
#b3lyp/svp scf=(tight,noincore,xqc) Test 
#IOP(5/87=12) Density=Current Pop=(MK,readradii) iop(6/33=2) iop(6/42=6)

holoCaM.loop1.water2.frame175 

   0  1 
C          0.28522       77.82097      112.81673
C          0.30788       77.05241      114.09643
O         -0.56877       76.22336      114.29898
H         -0.66295       78.39588      112.76170
H          1.13626       78.53085      112.75968
H          0.34196       77.11462      111.96400
N          1.27425       77.28515      115.02760
C          1.29420       76.58676      116.29891
C          0.01039       76.88712      117.04221
O         -0.29183       78.05209      117.26466
C          2.48657       77.03077      117.14725
C          2.64291       76.17298      118.35679
O          1.96066       75.01601      118.48415
O          3.49233       76.46856      119.17183
H          2.00530       77.98603      114.82988
H          1.39806       75.49665      116.08796
H          2.36708       78.09473      117.44294
H          3.43221       76.92872      116.56997
N         -0.80264       75.87280      117.43082
C         -2.13859       76.07790      117.96405
C         -2.21722       75.84629      119.46722
O         -3.24180       76.19011      120.03996
C         -3.09695       75.17864      117.14388
C         -4.59939       75.34081      117.39689
C         -5.06482       76.77977      117.15930
C         -6.58843       76.89001      117.22141
N         -7.00238       78.28750      117.11088
H         -0.48097       74.91568      117.26802
H         -2.41023       77.14226      117.81001
H         -2.83336       74.11267      117.31798
H         -2.92122       75.39034      116.06517
H         -4.86361       75.02081      118.42698
H         -5.12224       74.66156      116.68668
H         -4.72380       77.12880      116.15931
H         -4.62550       77.43374      117.94070
H         -6.95978       76.47511      118.18413
H         -7.03106       76.30003      116.38704
H         -8.04598       78.33792      117.11258
H         -6.63615       78.82768      117.92888
H         -6.63921       78.70611      116.22371
N         -1.19016       75.29385      120.18197
C         -1.23340       75.12289      121.63571
C          0.00847       75.67377      122.35508
O          0.03894       75.59879      123.57589
C         -1.54091       73.65237      121.98503
C         -0.53422       72.63424      121.53074
O          0.47977       72.95823      120.93587
O         -0.76683       71.33277      121.78406
H         -0.37065       74.93523      119.67647
H         -2.09363       75.69265      122.05359
H         -2.51799       73.39245      121.51967
H         -1.66165       73.55997      123.08606
N          1.03322       76.29399      121.69218
C          2.07807       77.05562      122.37088
C          3.36478       76.31174      122.69940
O          4.26905       76.97190      123.19252
H          0.95450       76.43492      120.67724
H          1.67125       77.52229      123.29634
H          2.35739       77.90160      121.70657
N          3.54152       74.97147      122.50434
C          4.77936       74.28610      122.91858
C          5.99573       74.57301      122.02091
O          7.10306       74.28925      122.45518
C          4.55023       72.77104      123.15774
C          3.87633       72.10153      122.00374
O          4.41856       72.17284      120.78927
O          2.75889       71.62845      122.13435
H          2.74639       74.42478      122.14553
H          5.05498       74.68365      123.92075
H          3.88192       72.66158      124.03899
H          5.51183       72.26662      123.39123
N          5.88138       75.13496      120.78402
C          7.01235       75.55070      119.95394
C          7.15176       74.77427      118.65593
O          8.02378       75.12483      117.87207
H          4.94517       75.29420      120.41827
H          7.97611       75.44934      120.49814
H          6.88101       76.62826      119.71379
N          6.39581       73.67259      118.38824
C          6.58382       72.81391      117.22029
C          5.27207       72.58386      116.47780
O          4.24247       73.11317      116.87112
C          7.23300       71.47642      117.67104
C          8.68278       71.67954      118.13803
O          6.47072       70.83994      118.66560
H          5.70782       73.37084      119.08463
H          7.27633       73.28441      116.48649
H          7.30349       70.78235      116.80950
H          6.64481       71.29617      119.53062
H          9.28976       72.10432      117.30954
H          8.73509       72.36664      119.00821
H          9.12225       70.70214      118.42804
N          5.26230       71.81838      115.34958
C          4.09450       71.58360      114.50880
C          3.82990       70.07732      114.42433
O          4.73896       69.33106      114.08644
C          4.37365       72.20208      113.10334
C          4.70912       73.72138      113.17014
C          3.21926       71.95777      112.12240
C          3.57569       74.63011      113.66789
H          6.15170       71.40800      115.02683
H          3.19103       72.08082      114.92144
H          5.27137       71.69648      112.68234
H          4.99775       74.06697      112.15348
H          5.59261       73.87441      113.82548
H          3.45934       72.39049      111.12784
H          3.05000       70.87223      111.98072
H          2.28498       72.41895      112.49614
H          2.69652       74.58728      112.99302
H          3.26184       74.36376      114.69573
H          3.93123       75.68222      113.68266
N          2.58039       69.57493      114.65331
C          2.21095       68.16500      114.49345
C          1.46804       67.98975      113.18314
O          1.31420       68.94968      112.44744
C          1.29539       67.68805      115.66586
C          2.00365       67.66906      117.01891
O          0.10551       68.44042      115.71789
H          1.82100       70.24306      114.83526
H          3.11151       67.51484      114.44645
H          0.99622       66.63289      115.50432
H          0.25928       69.23312      116.29285
H          2.88241       66.99240      116.98377
H          2.32880       68.68905      117.27767
H          1.30209       67.29977      117.79993
N          0.94265       66.78467      112.83613
C          0.05473       66.61265      111.69107
C         -1.15762       67.52437      111.84466
O         -1.49709       68.23665      110.91052
C         -0.41536       65.13757      111.56651
C          0.74760       64.19405      111.23767
O         -1.04151       64.71942      112.75368
H          1.12029       65.97587      113.44835
H          0.58553       66.87616      110.74805
H         -1.14281       65.09009      110.72200
H         -1.57039       63.90848      112.53518
H          0.36423       63.15847      111.11765
H          1.22997       64.49986      110.28556
H          1.50903       64.19089      112.04442
N         -1.84847       67.54630      113.02041
C         -3.08602       68.29404      113.24158
C         -2.93540       69.81721      113.15768
O         -3.94598       70.50137      113.22859
C         -3.65991       67.85959      114.61223
C         -5.11802       68.26627      114.85020
C         -5.64854       67.59933      116.12795
C         -7.13616       67.88121      116.38757
N         -7.99381       67.36689      115.31608
H         -1.50188       66.94399      113.78270
H         -3.79873       67.96844      112.45228
H         -3.00693       68.22083      115.43888
H         -3.64517       66.74643      114.62399
H         -5.70268       67.91100      113.97775
H         -5.22383       69.36640      114.94168
H         -5.05896       67.96489      116.99758
H         -5.51087       66.49765      116.05725
H         -7.30433       68.97289      116.51437
H         -7.41234       67.37586      117.33956
H         -8.99369       67.46659      115.60250
H         -7.85780       67.91476      114.43722
H         -7.79246       66.35518      115.14123
N         -1.72581       70.42416      112.99600
C         -1.54400       71.87091      112.92872
C         -1.06362       72.22400      111.53212
O         -1.73607       72.97947      110.84423
C         -0.57113       72.32527      114.04650
C         -1.08238       71.85938      115.42750
C         -0.15231       72.16405      116.56902
O          1.02141       71.83727      116.52390
O         -0.64545       72.67381      117.71087
H         -0.88131       69.84881      112.93590
H         -2.50691       72.40286      113.09755
H         -0.45568       73.43101      114.02824
H          0.42440       71.87018      113.86851
H         -1.19372       70.76009      115.40475
H         -2.08333       72.29512      115.63609
N          0.06214       71.65748      111.02090
C          0.50339       71.86652      109.65987
H          1.42899       71.27938      109.47151
H         -0.27847       71.51268      108.95372
H          0.71600       72.94008      109.48194
H          0.61211       71.02454      111.60676
Ca         3.11505       73.34891      119.41685
O          3.38757       70.02337      118.94736
H          3.85495       69.50274      119.64675
H          4.02454       70.72237      118.66492
O          0.67509       69.92228      119.42265
H          0.20343       69.14424      119.81135
H         -0.03837       70.58066      119.23547

Ca 1.0



