%chk=holoCaM-CaMKII.loop2.water2.frame147.chk
%nprocshared=20
%mem=10GB
%nosave
#b3lyp/svp scf=(tight,noincore,xqc) Test 
#IOP(5/87=12) Density=Current Pop=(MK,readradii) iop(6/33=2) iop(6/42=6)

holoCaM-CaMKII.loop2.water2.frame147 

   -2  1 
C        102.33933        9.38442       49.16361
C        101.89206        9.36036       47.73103
O        101.42422        8.33137       47.26498
H        103.40746        9.67303       49.22858
H        101.72798       10.12870       49.72075
H        102.19412        8.39253       49.64259
N        101.95377       10.49782       46.98549
C        101.34992       10.60434       45.66355
C        102.05683        9.77238       44.60610
O        103.25892        9.92647       44.44498
C        101.27718       12.08815       45.21571
C        100.17360       12.26220       44.21131
O        100.29875       12.98606       43.23685
O         99.01812       11.61101       44.46106
H        102.33078       11.34841       47.43269
H        100.30887       10.24324       45.80148
H        102.25820       12.48377       44.86875
H        100.96581       12.69851       46.08449
N        101.35608        8.90162       43.81806
C        101.96521        8.07143       42.78071
C        101.42167        8.33710       41.37026
O        101.91801        7.69771       40.45265
C        101.73296        6.59952       43.14230
H        100.34423        8.81443       43.96794
H        103.06197        8.24695       42.74563
H        102.22381        5.92976       42.40408
H        102.15646        6.38112       44.14546
H        100.64404        6.37271       43.15999
N        100.40612        9.21769       41.10834
C         99.84300        9.42326       39.76424
C         99.86228       10.89909       39.33897
O        100.41781       11.17384       38.28407
C         98.43846        8.75216       39.57935
C         97.35882        9.13408       40.54841
O         97.69890        9.86618       41.59887
O         96.21325        8.73678       40.41563
H         99.99870        9.73636       41.89469
H        100.46093        8.88609       39.00998
H         98.55344        7.64944       39.65382
H         98.08648        8.99014       38.55210
N         99.27159       11.89550       40.06965
C         99.19139       13.28674       39.63746
C         97.75487       13.78238       39.49473
O         97.58334       14.94268       39.14859
H         98.86273       11.68969       40.98389
H         99.69463       13.43466       38.65786
H         99.71510       13.91935       40.38556
N         96.67487       12.97055       39.70831
C         95.28296       13.38372       39.49523
C         94.73200       14.41183       40.50357
O         93.55925       14.74362       40.39346
C         94.36341       12.13673       39.44889
C         94.24619       11.36587       40.73748
N         93.40113       10.31677       40.81028
O         94.89690       11.68030       41.71896
H         96.84493       11.98447       39.94611
H         95.21113       13.82966       38.47842
H         94.72869       11.44214       38.66054
H         93.34241       12.46491       39.15835
H         92.84325       10.02705       39.99487
H         93.29193        9.80608       41.69239
N         95.49359       14.97453       41.48638
C         95.00394       16.00111       42.40213
C         94.36348       15.47171       43.68020
O         93.99300       16.29473       44.50556
H         96.49543       14.77233       41.51300
H         94.31133       16.69182       41.87069
H         95.87324       16.61495       42.72047
N         94.18158       14.14046       43.91988
C         93.54347       13.60298       45.12514
C         94.34765       12.47233       45.75184
O         94.92461       11.67368       45.03039
C         92.14630       13.03516       44.77238
C         91.15860       14.14699       44.42280
O         92.22437       12.13743       43.69247
H         94.45368       13.47399       43.19211
H         93.38985       14.39147       45.89600
H         91.71365       12.52277       45.66542
H         92.52085       11.26304       44.05506
H         91.49943       14.72201       43.53755
H         90.16367       13.70440       44.20364
H         91.04661       14.83795       45.28666
N         94.25663       12.23687       47.09464
C         94.72081       10.99820       47.72357
C         93.88985        9.84070       47.17225
O         92.66744        9.91364       47.23086
C         94.56465       11.05466       49.28361
C         95.37542       12.20016       49.95499
C         94.92715        9.70363       49.94072
C         96.89717       12.08124       49.83837
H         93.75204       12.92447       47.67494
H         95.79614       10.83448       47.50192
H         93.49346       11.24988       49.51448
H         95.12749       12.21959       51.03906
H         95.06741       13.17912       49.53387
H         94.81117        9.76468       51.04371
H         94.25101        8.89888       49.58991
H         95.96839        9.40143       49.70207
H         97.27538       11.15226       50.31069
H         97.20383       12.09928       48.78351
H         97.37720       12.94056       50.35231
N         94.48595        8.71236       46.69148
C         93.75387        7.52899       46.24444
C         93.88856        6.42198       47.26452
O         94.56357        6.62043       48.26735
C         94.29514        7.02720       44.89121
C         94.08543        8.00390       43.78259
O         93.40014        7.68793       42.82348
O         94.67522        9.21129       43.81639
H         95.51255        8.65201       46.73056
H         92.66526        7.74567       46.15401
H         93.77247        6.08871       44.61069
H         95.37996        6.80132       44.97637
N         93.23899        5.23695       47.11284
C         93.31605        4.16041       48.08790
C         94.72395        3.55620       48.16813
O         95.22049        3.46438       49.27640
C         92.21888        3.10016       47.85346
C         92.12884        2.11710       48.99786
C         92.33764        0.74580       48.77869
C         91.81939        2.56340       50.29814
C         92.24349       -0.15967       49.84066
C         91.73000        1.65586       51.35542
C         91.94155        0.29501       51.12745
H         92.61548        5.11749       46.29526
H         93.07439        4.60982       49.07723
H         92.37337        2.56888       46.89815
H         91.23520        3.61398       47.78127
H         92.57182        0.37694       47.78804
H         91.64238        3.61235       50.49867
H         92.40364       -1.21514       49.66589
H         91.49351        2.00927       52.35107
H         91.86864       -0.40658       51.94793
N         95.45890        3.16622       47.06334
C         96.83034        2.63933       47.14079
C         97.85582        3.58160       47.76463
O         99.01523        3.20095       47.87959
C         97.22274        2.42759       45.67046
C         95.89135        2.15092       45.01827
C         95.00502        3.19237       45.69226
H         96.78447        1.67691       47.69548
H         97.57300        3.39474       45.23620
H         98.01646        1.66679       45.50705
H         95.89584        2.19722       43.90863
H         95.55687        1.13833       45.34008
H         95.19316        4.20626       45.27651
H         93.95383        2.89996       45.53904
N         97.50852        4.83371       48.15859
C         98.40153        5.84012       48.69492
C         98.10456        5.99959       50.17854
O         99.02984        5.96135       50.97539
C         98.19010        7.15108       47.90134
C         98.37732        6.92420       46.38295
C         98.08820        8.14254       45.55368
O         98.08423        8.04979       44.33679
O         97.80501        9.32706       46.12618
H         96.54304        5.14421       48.03240
H         99.46770        5.53815       48.58298
H         98.89115        7.93238       48.26554
H         97.15274        7.51114       48.07339
H         97.66669        6.14133       46.04270
H         99.41096        6.57485       46.17048
N         96.81943        6.08586       50.62951
C         96.47419        6.12118       52.03181
H         95.36681        6.10707       52.14293
H         96.88040        5.22262       52.54393
H         96.87169        7.04278       52.50057
H         96.04256        6.06843       49.96625
Ca        97.16592       11.05725       43.34938
O         97.40068       13.88587       43.66018
H         97.83194       14.76949       43.76249
H         97.77385       13.52873       42.81448
O         98.18874       12.77731       46.65308
H         97.69042       11.94048       46.47282
H         98.96269       12.48238       47.19538

Ca 1.0



