%chk=holoCaM-CaMKII.loop1.water2.frame352.chk
%nprocshared=20
%mem=10GB
%nosave
#b3lyp/svp scf=(tight,noincore,xqc) Test 
#IOP(5/87=12) Density=Current Pop=(MK,readradii) iop(6/33=2) iop(6/42=6)

holoCaM-CaMKII.loop1.water2.frame352 

   0  1 
C         34.84196       74.38922       45.33479
C         35.30604       75.37870       46.35533
O         34.56080       75.66545       47.27946
H         33.93014       74.77317       44.83465
H         35.62468       74.20322       44.56977
H         34.61134       73.42889       45.84282
N         36.55442       75.91096       46.28353
C         37.07027       76.79267       47.31415
C         36.41257       78.17121       47.22437
O         36.64552       78.88405       46.25839
C         38.60668       76.82227       47.21094
C         39.24143       77.43297       48.40052
O         38.49993       78.11787       49.27039
O         40.44149       77.34046       48.56328
H         37.18258       75.59969       45.52605
H         36.83766       76.31446       48.29549
H         38.95893       77.31944       46.28128
H         38.95156       75.76599       47.20122
N         35.51368       78.56987       48.17242
C         34.73135       79.80434       48.07799
C         35.51616       81.07430       48.38489
O         35.04350       82.13386       47.99456
C         33.48944       79.73535       48.99153
C         32.50299       78.56286       48.74205
C         31.77052       78.60046       47.38602
C         32.52750       77.93611       46.21904
N         31.82952       78.16265       44.95575
H         35.28275       77.89744       48.91453
H         34.37959       79.92778       47.03959
H         32.91362       80.68278       48.89847
H         33.84065       79.66958       50.04424
H         31.72242       78.68967       49.52444
H         32.95798       77.56548       48.90865
H         31.49675       79.65275       47.16008
H         30.82556       78.02169       47.48786
H         32.58855       76.84550       46.41349
H         33.55942       78.29562       46.10096
H         30.85540       77.78704       45.00334
H         31.80530       79.18844       44.74984
H         32.34821       77.68022       44.18640
N         36.66858       81.07338       49.11656
C         37.44079       82.28831       49.39299
C         38.89066       82.18199       48.89813
O         39.63237       83.13999       49.06683
C         37.28112       82.74177       50.87108
C         37.72623       81.80450       51.95714
O         37.63154       82.14344       53.12425
O         38.23153       80.60538       51.67526
H         37.00203       80.18390       49.50674
H         37.01732       83.14380       48.81994
H         36.20325       82.95285       51.04702
H         37.83476       83.69718       51.00189
N         39.32864       81.10725       48.17195
C         40.60250       81.06952       47.46308
C         41.86082       80.91646       48.29454
O         42.92209       80.90293       47.68542
H         38.68235       80.33401       47.97173
H         40.68690       81.98657       46.83939
H         40.58828       80.20089       46.76886
N         41.86478       80.78645       49.65232
C         43.11797       80.66670       50.40769
C         43.89330       79.36362       50.14073
O         44.99852       79.24784       50.65170
C         42.86705       80.87779       51.92069
C         42.01377       79.83259       52.57533
O         41.62770       78.86315       51.95220
O         41.67958       79.96267       53.87207
H         40.96961       80.82860       50.16062
H         43.77137       81.51227       50.09620
H         42.36866       81.86226       52.05238
H         43.83722       80.91003       52.46127
N         43.39398       78.34981       49.36777
C         44.12373       77.12316       49.05412
C         43.47583       75.85716       49.59835
O         44.03238       74.79269       49.36890
H         42.46253       78.45035       48.95778
H         45.15486       77.15779       49.46654
H         44.20977       77.03912       47.94964
N         42.35827       75.88742       50.38087
C         41.82442       74.71605       51.07949
C         40.30549       74.62833       50.97279
O         39.65104       75.64950       50.82872
C         42.26578       74.76562       52.57938
C         43.37737       73.75773       52.85951
O         42.75026       76.03611       52.93898
H         41.93934       76.79767       50.60404
H         42.20646       73.77906       50.61480
H         41.43219       74.47900       53.26071
H         41.97378       76.64487       52.96475
H         43.69305       73.83747       53.92205
H         42.99994       72.72775       52.68418
H         44.25643       73.94523       52.20768
N         39.67735       73.41775       51.10623
C         38.22447       73.24386       51.06678
C         37.76549       72.74568       52.43508
O         38.30228       71.75561       52.91380
C         37.77250       72.22201       49.96843
C         38.49743       72.41609       48.61253
C         36.23964       72.33157       49.78074
C         38.15913       71.31439       47.59577
H         40.25571       72.57646       51.25740
H         37.73570       74.21417       50.82995
H         38.03212       71.19858       50.32033
H         39.59273       72.35109       48.78295
H         38.26733       73.41251       48.17837
H         35.84333       71.56662       49.08542
H         35.71027       72.18714       50.74082
H         35.97211       73.33641       49.38188
H         38.38377       70.31239       48.02336
H         37.09446       71.34402       47.28863
H         38.77135       71.44568       46.67973
N         36.73544       73.34943       53.09083
C         36.20772       72.89815       54.37916
C         34.88535       72.17956       54.17129
O         34.44193       72.05279       53.04488
C         36.01396       74.10389       55.34359
C         37.31990       74.83863       55.66507
O         35.04618       74.99649       54.85011
H         36.24965       74.11619       52.61593
H         36.89902       72.16680       54.85212
H         35.63489       73.73191       56.31767
H         35.48097       75.58507       54.18344
H         38.03934       74.14495       56.14601
H         37.77385       75.26101       54.74449
H         37.10415       75.67286       56.36795
N         34.19429       71.67311       55.22750
C         32.87651       71.05162       55.09671
C         31.87789       72.05855       54.53558
O         31.19778       71.75006       53.56717
C         32.39055       70.49418       56.45772
C         33.30928       69.36703       56.95577
O         32.33036       71.52030       57.41496
H         34.61141       71.76069       56.16467
H         32.93535       70.18410       54.39961
H         31.37267       70.06611       56.29989
H         31.78283       71.17898       58.16917
H         32.91849       68.95375       57.90875
H         33.34914       68.54562       56.20891
H         34.34180       69.73089       57.13691
N         31.79599       73.31090       55.06797
C         30.92144       74.37330       54.56934
C         31.09833       74.59994       53.07899
O         30.11210       74.55955       52.35619
C         31.22640       75.69150       55.32466
C         30.64951       75.67476       56.74742
C         31.07515       76.91513       57.54847
C         30.24108       77.11392       58.82793
N         30.28712       75.96453       59.73252
H         32.43616       73.53553       55.84485
H         29.85432       74.10173       54.73248
H         30.75311       76.55147       54.79993
H         32.32640       75.86636       55.33333
H         30.97542       74.76675       57.29736
H         29.54211       75.65629       56.64737
H         30.92987       77.82897       56.93220
H         32.15771       76.83419       57.79424
H         29.18355       77.30968       58.54244
H         30.62113       78.01511       59.35875
H         29.72954       76.19062       60.58806
H         29.85376       75.12634       59.28324
H         31.27276       75.75769       60.01103
N         32.32145       74.86469       52.55365
C         32.53883       75.17384       51.14183
C         32.08366       74.01364       50.26773
O         31.20341       74.21043       49.44165
C         34.01827       75.56089       50.91026
C         34.35772       76.85103       51.69583
C         35.79593       77.26543       51.58478
O         36.07846       78.37902       51.17833
O         36.77911       76.44983       52.00375
H         33.12267       74.85503       53.19831
H         31.92785       76.06359       50.86781
H         34.19939       75.74148       49.83209
H         34.66683       74.72139       51.22432
H         34.14484       76.72776       52.77212
H         33.70527       77.67218       51.33382
N         32.60109       72.76734       50.43421
C         32.14955       71.59442       49.71221
H         31.34330       71.82585       48.98561
H         33.00333       71.13965       49.16904
H         31.75558       70.85098       50.43925
H         33.33340       72.63160       51.13173
Ca        39.08480       78.61612       51.31943
O         37.53793       78.72791       54.35365
H         36.95895       78.96817       55.11934
H         37.98342       79.57605       54.10622
O         39.98940       76.97085       54.43384
H         40.15341       77.93096       54.60752
H         40.55134       76.50143       55.10019

Ca 1.0



