%chk=holoCaM.loop3.water2.frame331.chk
%nprocshared=20
%mem=10GB
%nosave
#b3lyp/svp scf=(tight,noincore,xqc) Test 
#IOP(5/87=12) Density=Current Pop=(MK,readradii) iop(6/33=2) iop(6/42=6)

holoCaM.loop3.water2.frame331 

   0  1 
C         12.60090       19.88028        2.14998
C         13.43491       18.75896        2.68470
O         13.15624       17.61355        2.35788
H         11.54839       19.74078        2.47211
H         12.96205       20.86295        2.51818
H         12.65009       19.87545        1.04091
N         14.49509       19.01071        3.50323
C         15.34422       17.94610        4.01096
C         14.53329       17.04181        4.92697
O         14.08686       17.47616        5.97969
C         16.58063       18.54401        4.70621
C         17.63185       17.54154        5.07248
O         18.79008       17.98875        5.57706
O         17.47827       16.34534        4.88614
H         14.72271       19.98980        3.73632
H         15.71728       17.37660        3.12919
H         16.28065       19.11368        5.61212
H         17.06292       19.24957        3.99512
N         14.25571       15.77353        4.52811
C         13.39579       14.84263        5.24519
C         13.91656       14.51302        6.64134
O         13.10002       14.35084        7.53585
C         13.22662       13.55065        4.40573
C         12.02526       12.69993        4.85303
C         11.83825       11.42900        4.00473
C         12.92637       10.37633        4.27123
N         12.66994        9.15251        3.51209
H         14.60929       15.48882        3.60825
H         12.39448       15.32146        5.32917
H         14.17634       12.97770        4.43295
H         13.02147       13.83310        3.34803
H         11.11355       13.32540        4.72533
H         12.10298       12.41766        5.92336
H         11.80358       11.69053        2.92311
H         10.85853       10.98063        4.27888
H         12.93110       10.13240        5.35692
H         13.92767       10.76794        3.99658
H         11.73517        8.75773        3.76683
H         12.70212        9.35158        2.48594
H         13.40567        8.44670        3.74463
N         15.25463       14.37391        6.89429
C         15.79058       13.97220        8.20032
C         16.65558       15.04362        8.86697
O         17.09845       14.81020        9.98515
C         16.55527       12.64242        8.04392
C         17.71753       12.74828        7.09790
O         17.74344       12.08029        6.07684
O         18.73818       13.57540        7.37782
H         15.92047       14.53281        6.12451
H         14.95824       13.78164        8.91130
H         15.84575       11.87497        7.66472
H         16.93122       12.29897        9.03195
N         16.91643       16.24358        8.28019
C         17.65956       17.31111        8.93099
C         19.09954       16.95924        9.24132
O         19.50108       17.08212       10.38927
H         16.53162       16.44646        7.34872
H         17.13217       17.61273        9.86304
H         17.67413       18.19504        8.25682
N         19.94922       16.58127        8.24550
C         21.39127       16.41096        8.42255
C         22.15512       17.41218        7.55347
O         23.36860       17.30396        7.44517
C         21.80126       14.95031        8.12844
C         21.78362       14.55856        6.66622
N         22.90050       14.06702        6.07860
O         20.76128       14.66846        6.00932
H         19.56306       16.45884        7.30122
H         21.67726       16.59648        9.48143
H         21.13672       14.27503        8.70921
H         22.83287       14.79984        8.51656
H         23.77437       13.94854        6.61231
H         22.88942       13.78543        5.08759
N         21.50253       18.44024        6.93388
C         22.12819       19.41916        6.06792
C         22.27396       18.96703        4.62648
O         22.67352       19.80482        3.83001
H         20.51147       18.60740        7.14487
H         23.09222       19.77028        6.49644
H         21.45290       20.30234        6.02611
N         21.98919       17.69562        4.19612
C         22.12389       17.29655        2.78961
C         20.85875       16.59709        2.24852
O         19.80165       16.66987        3.15119
C         23.32274       16.35462        2.59453
C         24.59124       17.04702        3.01536
C         24.90905       17.18260        4.37645
C         25.44309       17.60414        2.05130
C         26.04921       17.88379        4.76984
C         26.58179       18.31035        2.44529
C         26.88524       18.45764        3.80734
O         27.97108       19.15142        4.20095
H         21.70909       16.97715        4.87798
H         22.31352       18.19418        2.15951
H         23.37316       16.10774        1.51072
H         23.20426       15.39812        3.14866
H         24.26739       16.75047        5.13124
H         25.21050       17.51636        0.99725
H         26.27485       17.98954        5.82358
H         27.21939       18.75196        1.69097
H         28.56271       19.57984        3.56645
N         20.47149       17.08709        0.91109
C         19.24295       16.48184        0.33548
C         19.59310       15.47537       -0.76423
O         20.13069       15.88329       -1.78551
C         18.34871       17.62472       -0.23848
C         18.05266       18.68587        0.85577
C         17.03665       17.06705       -0.83071
C         17.35458       19.93887        0.32346
H         21.27833       17.05689        0.24488
H         18.65405       15.96914        1.12576
H         18.92064       18.12417       -1.05263
H         19.00751       19.03905        1.29933
H         17.44548       18.23396        1.66736
H         17.24167       16.32263       -1.62524
H         16.42409       16.58709       -0.03870
H         16.43832       17.86770       -1.30870
H         16.34799       19.71297       -0.07920
H         17.23051       20.66861        1.15116
H         17.97410       20.41033       -0.46987
N         19.32303       14.14406       -0.62449
C         19.62941       13.16909       -1.67503
C         18.61644       13.22979       -2.81104
O         17.62291       13.93485       -2.70554
C         19.62022       11.73746       -1.09772
O         20.56666       11.60501       -0.07537
H         18.93432       13.81149        0.27123
H         20.65169       13.36729       -2.06734
H         19.82830       10.97630       -1.88323
H         18.61787       11.49916       -0.68276
H         21.45725       11.57601       -0.51380
N         18.79144       12.45095       -3.91993
C         17.77868       12.29695       -4.96208
C         16.53274       11.65267       -4.38583
O         15.43528       12.00906       -4.79007
C         18.30165       11.41932       -6.10291
H         19.66213       11.90325       -4.00061
H         17.53026       13.29036       -5.39869
H         17.52553       11.32225       -6.89362
H         19.20166       11.88565       -6.55615
H         18.56511       10.40487       -5.73417
N         16.63923       10.71546       -3.39923
C         15.49523       10.12465       -2.71921
C         14.64968       11.20451       -2.07825
O         13.45897       11.27816       -2.34739
C         15.97926        9.15286       -1.62770
H         17.58252       10.43687       -3.08833
H         14.88220        9.54934       -3.44715
H         16.58326        8.33800       -2.07845
H         16.61376        9.67456       -0.87736
H         15.11402        8.70124       -1.09731
N         15.21648       12.07324       -1.19858
C         14.46160       13.08414       -0.46753
C         13.92018       14.19665       -1.36312
O         13.14129       14.99985       -0.86815
C         15.35079       13.68158        0.63720
C         15.77840       12.61156        1.66851
C         16.74993       13.20712        2.63180
O         16.45576       14.20585        3.25645
O         17.99241       12.72435        2.75696
H         16.22513       11.97286       -1.01288
H         13.59583       12.58446        0.02179
H         14.79954       14.48690        1.17288
H         16.25001       14.13378        0.16023
H         16.27811       11.75094        1.17983
H         14.88329       12.23575        2.20414
N         14.28280       14.32026       -2.67275
C         13.75797       15.33779       -3.56240
H         13.00289       15.98666       -3.07165
H         14.58960       15.97542       -3.92853
H         13.27674       14.84546       -4.43432
H         14.97236       13.67727       -3.07330
Ca        19.32046       14.46553        3.16961
O         20.26405       11.54774        4.52915
H         19.87555       10.83941        3.95631
H         20.44023       11.09985        5.39417
O         21.66266       13.42531        1.85260
H         21.04884       12.72360        2.18534
H         22.56394       13.08818        2.07998

Ca 1.0



