%chk=holoCaM-CaMKII.loop3.water2.frame354.chk
%nprocshared=20
%mem=10GB
%nosave
#b3lyp/svp scf=(tight,noincore,xqc) Test 
#IOP(5/87=12) Density=Current Pop=(MK,readradii) iop(6/33=2) iop(6/42=6)

holoCaM-CaMKII.loop3.water2.frame354 

   0  1 
C         24.02416       65.89862       29.23837
C         22.95726       65.46712       28.27824
O         22.62693       66.23216       27.38399
H         24.95874       66.11082       28.67767
H         23.69711       66.81595       29.76962
H         24.23625       65.10854       29.98928
N         22.38654       64.23489       28.38956
C         21.38150       63.74044       27.45735
C         20.11276       64.58788       27.57503
O         19.41082       64.49380       28.57186
C         21.14535       62.24078       27.74419
C         20.29481       61.49702       26.76665
O         20.09207       60.18463       26.97012
O         19.81229       62.03942       25.78896
H         22.71831       63.61159       29.14238
H         21.81596       63.82272       26.43625
H         20.70751       62.12412       28.75840
H         22.13396       61.73043       27.73104
N         19.83766       65.52734       26.62592
C         18.79157       66.54164       26.73644
C         17.42111       66.02528       26.31809
O         16.43918       66.69228       26.61214
C         19.26460       67.78357       25.94368
C         18.37003       69.02796       25.98391
C         19.17383       70.22839       25.45005
C         18.35093       71.51852       25.39615
N         19.20641       72.65698       25.05375
H         20.52683       65.64506       25.88116
H         18.72863       66.84873       27.80454
H         19.44218       67.51500       24.87741
H         20.24382       68.05827       26.39702
H         18.07180       69.24853       27.03123
H         17.45788       68.85262       25.37271
H         19.56789       70.01206       24.43192
H         20.03810       70.38903       26.13293
H         17.88001       71.70987       26.38505
H         17.54702       71.40791       24.63484
H         18.62151       73.51970       24.97608
H         19.91751       72.80365       25.80792
H         19.69470       72.49109       24.14375
N         17.27193       64.84976       25.64096
C         15.97514       64.25743       25.31027
C         15.84082       62.84418       25.87934
O         14.80316       62.23172       25.66774
C         15.72523       64.32037       23.78072
C         16.71866       63.60201       22.90603
O         16.64269       63.71064       21.69294
O         17.69446       62.85301       23.43944
H         18.11758       64.34921       25.34118
H         15.15360       64.85295       25.76577
H         15.74815       65.39428       23.49400
H         14.70857       63.93242       23.55107
N         16.82544       62.26735       26.63671
C         16.71772       60.94051       27.22615
C         16.69000       59.79492       26.22656
O         16.54575       58.66429       26.66959
H         17.67287       62.79921       26.86943
H         15.80170       60.90598       27.85366
H         17.58841       60.77192       27.89690
N         16.80862       59.98508       24.87923
C         16.68422       58.90272       23.90611
C         17.79696       57.86108       23.97233
O         17.67670       56.86568       23.27154
C         16.55871       59.46342       22.46824
C         17.78342       60.16367       21.92372
N         17.74901       60.68019       20.67472
O         18.80229       60.26801       22.59111
H         16.91812       60.93587       24.52399
H         15.72216       58.38736       24.12335
H         15.70764       60.17899       22.44421
H         16.31496       58.62592       21.77965
H         16.90023       60.60093       20.09577
H         18.57094       61.15892       20.28334
N         18.89588       58.00488       24.77179
C         19.92621       56.98399       24.88774
C         21.32170       57.44737       24.52186
O         22.19948       56.59470       24.55151
H         18.99339       58.84496       25.34755
H         19.69263       56.11239       24.23996
H         19.94592       56.61780       25.93658
N         21.64296       58.73792       24.19061
C         23.01550       59.10092       23.82041
C         23.30684       60.60206       23.85877
O         22.41056       61.40594       24.07694
C         23.37837       58.49460       22.44016
C         22.45482       58.93119       21.32420
C         22.78676       60.02449       20.50724
C         21.26814       58.22023       21.06663
C         21.94682       60.39936       19.45265
C         20.43280       58.59417       20.00996
C         20.76873       59.68180       19.19823
O         19.95535       60.02501       18.17856
H         20.91710       59.46706       24.22747
H         23.69618       58.68076       24.59454
H         23.36438       57.38542       22.48273
H         24.42708       58.73980       22.17231
H         23.69622       60.58458       20.68444
H         20.99338       57.36763       21.67439
H         22.21525       61.24343       18.83013
H         19.52549       58.03401       19.81844
H         20.15027       60.76885       17.59090
N         24.60011       61.02734       23.70276
C         25.05003       62.41443       23.79771
C         25.69356       62.83284       22.48041
O         26.57456       62.14058       21.98853
C         26.10010       62.58771       24.94333
C         25.54425       62.11277       26.30938
C         26.55386       64.06621       25.03050
C         26.59413       62.14841       27.42802
H         25.33044       60.31740       23.53890
H         24.19431       63.08729       24.03199
H         26.98639       61.96043       24.69775
H         25.21209       61.05731       26.21735
H         24.66796       62.73009       26.60613
H         25.69576       64.72340       25.28837
H         27.35513       64.21317       25.77887
H         26.98869       64.40941       24.07249
H         26.16050       61.73670       28.36225
H         27.47661       61.53427       27.14597
H         26.92784       63.18151       27.65188
N         25.36001       64.02680       21.92202
C         25.98439       64.61047       20.74206
C         26.73445       65.88756       21.12074
O         26.74483       66.26564       22.28440
C         24.90714       64.89368       19.67974
O         24.02478       65.88545       20.12866
H         24.66137       64.58567       22.40518
H         26.71880       63.89932       20.30616
H         24.35890       63.94519       19.47527
H         25.37779       65.24070       18.73653
H         23.20142       65.80553       19.58111
N         27.40542       66.59702       20.17191
C         28.18586       67.79884       20.45711
C         27.34133       68.92675       21.02670
O         27.71022       69.46500       22.06060
C         28.88311       68.28727       19.18319
H         27.38716       66.24546       19.20257
H         28.98983       67.54399       21.18485
H         29.54502       67.48790       18.78687
H         28.14145       68.55798       18.40216
H         29.51050       69.17640       19.40936
N         26.21809       69.36298       20.38677
C         25.42406       70.50153       20.84922
C         24.88599       70.28729       22.25343
O         25.19229       71.08208       23.13153
C         24.26592       70.77283       19.87979
H         25.93542       68.87920       19.52026
H         26.07261       71.40618       20.85013
H         23.68186       71.65573       20.21701
H         24.66523       70.98416       18.86522
H         23.58460       69.89812       19.81155
N         24.07663       69.22879       22.53621
C         23.51489       68.97395       23.86783
C         24.57434       68.77603       24.94928
O         24.21564       68.80218       26.11847
C         22.55351       67.76284       23.82231
C         23.27671       66.46450       23.42694
C         22.30714       65.37300       23.08507
O         21.53689       64.84060       24.02908
O         22.21467       64.95551       21.94349
H         23.83004       68.60937       21.75198
H         22.92233       69.87460       24.14416
H         21.77497       67.99062       23.06108
H         22.04513       67.62163       24.79987
H         23.96655       66.13264       24.23238
H         23.88416       66.65025       22.52789
N         25.88704       68.57280       24.64151
C         26.94144       68.45742       25.62723
H         27.70251       69.24339       25.43154
H         26.57023       68.58708       26.66483
H         27.42548       67.46301       25.53805
H         26.16897       68.48710       23.66037
Ca        19.82419       63.52424       23.46700
O         19.34605       66.07977       21.91864
H         19.85680       66.09248       21.07059
H         18.43315       65.80624       21.65291
O         20.30188       63.18418       20.28036
H         20.95168       63.56113       19.63575
H         19.41620       63.42094       19.90635

Ca 1.0



