%chk=holoCaM.loop2.water2.frame365.chk
%nprocshared=20
%mem=10GB
%nosave
#b3lyp/svp scf=(tight,noincore,xqc) Test 
#IOP(5/87=12) Density=Current Pop=(MK,readradii) iop(6/33=2) iop(6/42=6)

holoCaM.loop2.water2.frame365 

   -2  1 
C         -5.22986        6.22809       94.91979
C         -5.42630        4.88240       95.54681
O         -5.52013        3.89000       94.83842
H         -6.07424        6.88987       95.21005
H         -4.28012        6.67437       95.28119
H         -5.20136        6.14944       93.81333
N         -5.51885        4.78609       96.89897
C         -5.76793        3.53366       97.59971
C         -7.10069        2.95901       97.13865
O         -8.09882        3.66270       97.21049
C         -5.77579        3.80955       99.11193
C         -5.90222        2.59346       99.96975
O         -5.92546        1.46508       99.50454
O         -5.97181        2.77031      101.29341
H         -5.42463        5.65527       97.44939
H         -4.93630        2.83126       97.38208
H         -6.61286        4.50003       99.35206
H         -4.82157        4.30403       99.40062
N         -7.17989        1.69617       96.62648
C         -8.38420        1.14651       96.01437
C         -9.02446        0.01986       96.81495
O        -10.12626       -0.36976       96.45354
C         -8.04701        0.68728       94.59390
H         -6.33879        1.11551       96.63009
H         -9.15716        1.94181       95.94749
H         -7.29261       -0.12949       94.62395
H         -8.95400        0.31948       94.07127
H         -7.62286        1.53588       94.01490
N         -8.44577       -0.51497       97.92948
C         -9.14592       -1.43009       98.83651
C         -9.30963       -0.79684      100.22251
O         -9.88875       -1.43272      101.09190
C         -8.47874       -2.82325       98.85654
C         -7.06502       -2.85060       99.34224
O         -6.47941       -1.74193       99.81765
O         -6.42105       -3.88299       99.25316
H         -7.49441       -0.21939       98.18380
H        -10.17825       -1.61849       98.46939
H         -8.48118       -3.20279       97.81027
H         -9.07837       -3.52806       99.47266
N         -8.90746        0.48945      100.47067
C         -9.21640        1.22381      101.68592
C         -8.49198        0.80131      102.94849
O         -8.78064        1.40905      103.97026
H         -8.47329        1.04555       99.72379
H        -10.31382        1.16901      101.85561
H         -8.96175        2.29385      101.52010
N         -7.56477       -0.20141      103.00076
C         -6.96651       -0.61751      104.27657
C         -6.06124        0.44665      104.91360
O         -5.71492        0.30050      106.07688
C         -6.23276       -1.96528      104.13448
C         -4.90962       -1.85462      103.42215
N         -3.78107       -2.33519      103.99374
O         -4.85338       -1.33200      102.32340
H         -7.34373       -0.72252      102.14143
H         -7.82372       -0.80523      104.96158
H         -6.89493       -2.66831      103.58358
H         -6.06157       -2.39334      105.14514
H         -3.80783       -2.79558      104.91462
H         -2.87682       -2.26714      103.50829
N         -5.64173        1.53385      104.20501
C         -4.87801        2.64820      104.74811
C         -3.55273        2.90331      104.04504
O         -2.95882        3.93284      104.33498
H         -5.91498        1.60059      103.22627
H         -4.68360        2.53040      105.83611
H         -5.50325        3.55790      104.61879
N         -2.98737        2.01559      103.17122
C         -1.66558        2.22191      102.56376
C         -1.67944        1.96747      101.05088
O         -2.71944        1.64572      100.49245
C         -0.62208        1.33805      103.30158
C         -0.39970        1.82585      104.73959
O         -1.04333        0.00143      103.31426
H         -3.45779        1.11365      103.00426
H         -1.33277        3.27702      102.68416
H          0.36139        1.41842      102.79068
H         -0.26066       -0.54569      103.58694
H          0.38326        1.20957      105.23007
H         -0.04888        2.88100      104.73271
H         -1.33019        1.75511      105.33859
N         -0.52224        2.10030      100.33030
C         -0.38537        1.89158       98.88961
C          0.23736        0.52400       98.64145
O          1.23186        0.17874       99.26508
C          0.49414        3.02080       98.23732
C         -0.23536        4.38171       98.09644
C          0.97731        2.63091       96.82055
C         -0.67248        5.03167       99.40176
H          0.34425        2.33208      100.83631
H         -1.37370        1.90212       98.38359
H          1.41575        3.15520       98.84677
H         -1.12368        4.26577       97.43627
H          0.46157        5.09760       97.60463
H          1.62056        1.72810       96.85454
H          0.11827        2.44521       96.14153
H          1.61116        3.43299       96.38584
H         -1.45519        4.43333       99.90266
H          0.19977        5.17031      100.07391
H         -1.11014        6.02740       99.17468
N         -0.25247       -0.24726       97.62790
C          0.30897       -1.51755       97.18703
C          0.97846       -1.32464       95.83960
O          0.97685       -0.22273       95.31092
C         -0.81163       -2.56593       97.00026
C         -1.70280       -2.70876       98.17979
O         -2.35733       -1.62039       98.60578
O         -1.90313       -3.79802       98.69039
H         -1.03455        0.12242       97.07862
H          1.06199       -1.88538       97.91769
H         -0.38819       -3.55804       96.73663
H         -1.46888       -2.23527       96.16426
N          1.56691       -2.37366       95.21390
C          2.20246       -2.28021       93.90850
C          1.23612       -1.85113       92.79386
O          1.56787       -0.88286       92.12622
C          2.93708       -3.60025       93.60849
C          3.70062       -3.59309       92.30744
C          4.62296       -2.57182       92.00780
C          3.51250       -4.63641       91.38656
C          5.32856       -2.59096       90.80254
C          4.23391       -4.66024       90.19058
C          5.13757       -3.63627       89.89640
H          1.58203       -3.28253       95.70325
H          2.99093       -1.49974       93.98368
H          2.22566       -4.45230       93.63936
H          3.67413       -3.75704       94.42678
H          4.79733       -1.75573       92.69599
H          2.82051       -5.44145       91.60133
H          6.02769       -1.79682       90.57440
H          4.09332       -5.47533       89.49342
H          5.69263       -3.65461       88.96821
N          0.03786       -2.46330       92.51659
C         -0.85433       -2.02370       91.44551
C         -1.39282       -0.62106       91.69285
O         -1.44340        0.16300       90.75466
C         -1.94026       -3.11017       91.41121
C         -2.00132       -3.58988       92.84140
C         -0.52233       -3.59257       93.23652
H         -0.36185       -2.03424       90.44738
H         -2.90586       -2.81036       90.94810
H         -1.53622       -3.96995       90.82986
H         -2.54256       -2.82097       93.42778
H         -2.52836       -4.55362       93.00480
H         -0.47525       -3.49662       94.33420
H         -0.00937       -4.51703       92.89809
N         -1.78086       -0.22385       92.93309
C         -2.31984        1.10133       93.23429
C         -1.29590        2.18857       92.94210
O         -1.68800        3.29598       92.60229
C         -2.73697        1.17099       94.71734
C         -3.82022        0.12253       95.05966
C         -4.08647       -0.00772       96.53004
O         -3.46379        0.77480       97.42995
O         -4.87869       -0.85162       96.91791
H         -1.65526       -0.88872       93.70548
H         -3.22740        1.27800       92.61422
H         -3.11663        2.18458       94.97571
H         -1.82568        0.98592       95.31077
H         -3.51328       -0.88724       94.73177
H         -4.76133        0.38074       94.52841
N          0.03845        1.94098       93.05928
C          1.05082        2.93521       92.78557
H          2.05954        2.49404       92.94225
H          0.97470        3.27355       91.73087
H          0.93181        3.79983       93.47112
H          0.35612        1.00970       93.34701
Ca        -4.26473       -1.63731       99.71462
O         -3.75757       -4.44235      100.93791
H         -4.59447       -4.11626      101.35348
H         -3.98336       -4.54406       99.97951
O         -1.04901       -1.42875      100.99188
H         -0.49707       -2.17126      100.64320
H         -1.69418       -1.86895      101.59773

Ca 1.0



