%chk=holoCaM.loop1.water2.frame294.chk
%nprocshared=20
%mem=10GB
%nosave
#b3lyp/svp scf=(tight,noincore,xqc) Test 
#IOP(5/87=12) Density=Current Pop=(MK,readradii) iop(6/33=2) iop(6/42=6)

holoCaM.loop1.water2.frame294 

   0  1 
C         28.17704       46.76528       43.04448
C         28.05021       46.08767       41.71610
O         28.60875       46.56528       40.73874
H         27.16843       47.04893       43.41113
H         28.64582       46.06657       43.76959
H         28.80517       47.67693       42.96451
N         27.33126       44.93820       41.61798
C         27.18615       44.19773       40.37413
C         26.42941       45.02985       39.33700
O         25.23555       45.25208       39.47963
C         26.51552       42.84424       40.68403
C         26.21756       42.00394       39.48852
O         27.09649       41.65440       38.71917
O         24.95636       41.59178       39.29832
H         26.90459       44.56185       42.47985
H         28.20709       43.97412       39.99405
H         25.55720       43.02217       41.21963
H         27.18499       42.26719       41.35956
N         27.11268       45.55891       38.28133
C         26.53701       46.38746       37.22535
C         25.50511       45.62402       36.40768
O         24.39130       46.10541       36.25566
C         27.67524       46.99987       36.33548
C         28.53040       46.00368       35.51441
C         29.83211       46.63414       34.98101
C         30.79174       45.60324       34.34361
N         30.29428       45.06963       33.07739
H         28.12718       45.41476       38.26744
H         26.03903       47.26246       37.70089
H         28.34858       47.54150       37.03651
H         27.25282       47.75248       35.63496
H         27.92780       45.58630       34.68442
H         28.84404       45.18516       36.16716
H         30.37534       47.06346       35.85102
H         29.61391       47.45498       34.26601
H         30.97620       44.76839       35.05622
H         31.76936       46.09697       34.15037
H         30.20613       45.83615       32.37330
H         30.96660       44.35150       32.72058
H         29.36980       44.61833       33.20781
N         25.82752       44.44064       35.81918
C         24.95999       43.74058       34.87524
C         23.71229       43.17495       35.53461
O         22.61090       43.52572       35.13647
C         25.74224       42.59234       34.20345
C         26.98864       43.09921       33.51994
O         28.20829       42.66771       33.90688
O         26.89830       43.90961       32.61286
H         26.76674       44.05754       35.99784
H         24.66612       44.45112       34.07053
H         25.10147       42.07324       33.45945
H         26.02053       41.85632       34.97654
N         23.83013       42.24152       36.51693
C         22.71624       41.54403       37.14408
C         22.83597       40.04642       36.91558
O         21.88131       39.43638       36.45669
H         24.77957       42.00167       36.82835
H         21.73255       41.90381       36.77000
H         22.73971       41.74582       38.23397
N         24.00209       39.39574       37.19809
C         24.23209       37.96331       37.03150
C         24.75404       37.32874       38.32111
O         25.08623       36.15104       38.28954
C         25.20729       37.73246       35.85647
C         26.47950       38.50272       35.99653
O         26.73986       39.46409       35.11158
O         27.23788       38.31737       36.92445
H         24.80578       39.94642       37.52279
H         23.29349       37.43513       36.75471
H         24.70486       38.08251       34.92735
H         25.43123       36.65219       35.72900
N         24.81248       38.01505       39.50359
C         25.22746       37.39347       40.74993
C         26.72909       37.25987       40.93280
O         27.11387       36.66451       41.92701
H         24.44512       38.97447       39.56198
H         24.72825       36.40328       40.84213
H         24.87400       38.01521       41.59999
N         27.63854       37.78852       40.05789
C         29.08750       37.70804       40.27493
C         29.77880       39.05986       40.08684
O         29.19090       39.99321       39.56624
C         29.72779       36.61478       39.38430
C         29.30970       35.19966       39.81825
O         29.44061       36.82802       38.02638
H         27.29739       38.28038       39.22928
H         29.28391       37.42804       41.33170
H         30.83159       36.64863       39.50721
H         28.54165       36.44966       37.83913
H         29.61131       35.02271       40.87249
H         28.21208       35.05733       39.72985
H         29.81747       34.44746       39.17794
N         31.04561       39.22323       40.57658
C         31.81190       40.46877       40.55193
C         33.16930       40.23007       39.88676
O         33.86366       39.28241       40.21802
C         31.89896       41.05068       42.00312
C         30.51383       41.69144       42.33723
C         33.03362       42.08233       42.16729
C         30.40872       42.37971       43.69738
H         31.47754       38.42519       41.06460
H         31.29839       41.24357       39.95120
H         32.13488       40.23022       42.71559
H         29.72888       40.90730       42.28855
H         30.26943       42.46513       41.57321
H         33.10534       42.42787       43.21821
H         34.01788       41.62787       41.93214
H         32.88198       42.95995       41.52517
H         30.62444       41.66493       44.51604
H         31.09498       43.24994       43.75944
H         29.37732       42.77607       43.82178
N         33.61285       41.13215       38.96263
C         34.86333       41.07528       38.21721
C         35.77498       42.20670       38.68423
O         35.46428       42.86591       39.66226
C         34.55514       41.23516       36.69464
C         33.58043       40.17719       36.16690
O         34.10366       42.53818       36.39614
H         33.04042       41.95520       38.78419
H         35.38398       40.10760       38.38001
H         35.48724       41.08408       36.11424
H         33.13002       42.59113       36.56583
H         32.59906       40.27107       36.67345
H         33.43053       40.32350       35.07592
H         33.98594       39.15902       36.33842
N         36.90917       42.50926       37.99031
C         37.75273       43.66478       38.28899
C         36.94966       44.96472       38.19696
O         36.98600       45.73754       39.14495
C         38.98116       43.70589       37.34031
C         39.90157       42.49336       37.56649
O         38.56096       43.74793       36.00023
H         37.15871       41.92081       37.18698
H         38.15031       43.57559       39.32564
H         39.56273       44.62662       37.57812
H         39.36912       43.90475       35.44563
H         39.38693       41.53808       37.33487
H         40.79519       42.56852       36.91171
H         40.24742       42.46457       38.62155
N         36.19537       45.27154       37.09876
C         35.42250       46.51374       36.96868
C         34.28129       46.66539       37.97796
O         33.70455       47.74325       38.01366
C         34.77712       46.60963       35.57037
C         35.78057       46.82086       34.43253
C         35.02361       46.83085       33.09775
C         35.92603       47.21448       31.92291
N         35.17558       47.16860       30.66762
H         36.18795       44.59963       36.31627
H         36.11489       47.37391       37.11441
H         34.08867       47.48422       35.53688
H         34.17222       45.69098       35.39729
H         36.55025       46.01990       34.41466
H         36.28684       47.79928       34.59081
H         34.19091       47.56729       33.14474
H         34.59218       45.81954       32.92686
H         36.79102       46.51854       31.86167
H         36.31161       48.24650       32.08373
H         34.34706       47.80593       30.71597
H         35.79409       47.47705       29.88374
H         34.85333       46.19080       30.48172
N         33.87439       45.65669       38.79883
C         32.75845       45.78751       39.73746
C         33.23907       45.71593       41.18485
O         32.41624       45.91010       42.07033
C         31.73170       44.66030       39.47957
C         31.12717       44.65009       38.06762
C         30.36234       43.36484       37.81149
O         30.94882       42.30087       37.76993
O         29.04130       43.36190       37.58826
H         34.35170       44.75319       38.74854
H         32.25848       46.77339       39.61979
H         30.90259       44.70776       40.22003
H         32.26533       43.71682       39.62854
H         31.92809       44.71657       37.30207
H         30.47264       45.53982       37.96391
N         34.53684       45.44133       41.51169
C         35.03090       45.37403       42.87167
H         35.86775       46.09437       42.99125
H         34.24993       45.61519       43.62171
H         35.41215       44.35058       43.07287
H         35.22764       45.25222       40.77858
Ca        28.29552       41.02492       35.40663
O         30.96141       41.06196       34.10817
H         30.46287       41.44286       33.34303
H         30.89884       40.08283       33.97689
O         30.69053       38.64763       36.31339
H         30.80654       38.00100       35.57326
H         29.72533       38.86161       36.30794

Ca 1.0



