%chk=holoCaM-CaMKII.loop2.water2.frame377.chk
%nprocshared=20
%mem=10GB
%nosave
#b3lyp/svp scf=(tight,noincore,xqc) Test 
#IOP(5/87=12) Density=Current Pop=(MK,readradii) iop(6/33=2) iop(6/42=6)

holoCaM-CaMKII.loop2.water2.frame377 

   -2  1 
C         58.19067       56.29263       70.51551
C         58.96183       56.33901       71.80436
O         60.09880       55.89175       71.83379
H         57.18296       56.74748       70.62887
H         58.73942       56.86680       69.73847
H         58.07018       55.24312       70.17971
N         58.41167       56.91013       72.90955
C         59.13900       57.09677       74.15774
C         59.43819       55.76713       74.84499
O         58.50495       55.02843       75.12790
C         58.30369       57.98715       75.10751
C         59.08942       58.51189       76.27351
O         60.29630       58.35185       76.33514
O         58.46717       59.23492       77.22277
H         57.45772       57.29668       72.83210
H         60.07615       57.64678       73.91780
H         57.42197       57.41426       75.46894
H         57.93439       58.88178       74.56265
N         60.71496       55.42505       75.18553
C         61.06497       54.20141       75.90824
C         61.71373       54.47934       77.26989
O         62.04518       53.51898       77.95198
C         62.02918       53.38202       75.04107
H         61.47605       56.06867       74.93017
H         60.15991       53.58439       76.09560
H         61.55792       53.14516       74.06389
H         62.96481       53.95422       74.85465
H         62.29345       52.42508       75.54061
N         61.97000       55.74714       77.71325
C         62.78194       56.03639       78.90001
C         62.32147       57.25963       79.71854
O         62.95648       57.54719       80.72399
C         64.24901       56.21411       78.44968
C         64.45688       57.35630       77.48893
O         63.41746       58.10405       77.07020
O         65.58416       57.62657       77.10871
H         61.73777       56.51982       77.08852
H         62.76238       55.16400       79.59013
H         64.59744       55.27794       77.96204
H         64.88290       56.38421       79.34743
N         61.24111       58.01746       79.37406
C         60.74802       59.15369       80.14694
C         61.61659       60.41199       80.18624
O         61.17023       61.36037       80.81716
H         60.67395       57.73470       78.57166
H         60.54833       58.81785       81.18732
H         59.77486       59.46703       79.70894
N         62.83538       60.53162       79.57514
C         63.65428       61.75132       79.68169
C         63.12044       62.96660       78.89936
O         63.76992       64.00265       78.94601
C         65.15138       61.46202       79.38946
C         65.47944       60.85086       78.02921
N         66.89997       60.55840       77.89834
O         65.06412       61.64458       76.96828
H         63.22666       59.71632       79.08748
H         63.66849       62.06065       80.75130
H         65.49681       60.73106       80.15293
H         65.74632       62.39091       79.52842
H         67.15403       59.83881       78.61209
H         67.04875       60.11606       76.96353
N         61.93076       62.95712       78.22698
C         61.35095       64.14203       77.59326
C         61.99785       64.57706       76.28449
O         61.52782       65.55201       75.71570
H         61.35087       62.11120       78.24769
H         61.35335       64.98455       78.32020
H         60.28884       63.92259       77.35050
N         63.05044       63.91139       75.73480
C         63.68567       64.26404       74.46593
C         63.71876       63.06628       73.53674
O         64.10709       61.98996       73.96355
C         65.14239       64.74140       74.68167
C         65.20388       66.07213       75.42658
O         65.89627       63.78695       75.38493
H         63.42906       63.10898       76.23964
H         63.15438       65.09998       73.95824
H         65.60490       64.93515       73.68226
H         66.31128       63.18415       74.71388
H         66.26300       66.39613       75.51510
H         64.64984       66.85105       74.85926
H         64.76846       65.97841       76.44250
N         63.43873       63.21183       72.21217
C         63.66149       62.14126       71.24149
C         65.14227       61.77401       71.25012
O         65.97282       62.64984       71.04581
C         63.23052       62.57853       69.80216
C         61.71046       62.89355       69.75696
C         63.58280       61.48033       68.77119
C         61.23715       63.44061       68.40708
H         63.13756       64.13901       71.87766
H         63.04790       61.25386       71.51646
H         63.79678       63.49782       69.53055
H         61.46403       63.66882       70.50985
H         61.12638       61.98069       70.00608
H         63.04645       60.53498       69.00203
H         63.34048       61.79339       67.73769
H         64.67188       61.28201       68.76227
H         61.34972       62.69370       67.59641
H         60.15878       63.69539       68.47088
H         61.80412       64.35928       68.14503
N         65.53090       60.47716       71.40948
C         66.91579       60.02810       71.29151
C         67.09579       59.33672       69.95152
O         66.13110       59.24051       69.20322
C         67.26975       59.06254       72.44360
C         67.16087       59.69430       73.79957
O         66.08591       60.09437       74.21019
O         68.24841       59.78467       74.58812
H         64.80198       59.75713       71.51418
H         67.61656       60.89159       71.30680
H         68.31641       58.71508       72.31835
H         66.60071       58.17356       72.41014
N         68.31001       58.86539       69.54526
C         68.47778       58.19038       68.26398
C         67.71105       56.86765       68.23539
O         67.00133       56.65889       67.26663
C         69.95888       58.04013       67.85339
C         70.08567       57.51158       66.43715
C         69.52570       58.21983       65.35323
C         70.76318       56.30713       66.18280
C         69.62996       57.72449       64.05132
C         70.87047       55.81901       64.87544
C         70.30151       56.52489       63.81198
H         69.13563       59.01582       70.14657
H         68.04004       58.86121       67.49289
H         70.50576       57.39167       68.56174
H         70.44184       59.04107       67.88626
H         69.00364       59.15498       65.50764
H         71.20723       55.74462       66.99397
H         69.18926       58.27250       63.22783
H         71.39358       54.89114       64.68585
H         70.38188       56.14419       62.80193
N         67.73922       55.94393       69.25501
C         66.91212       54.73555       69.27767
C         65.39890       54.95786       69.18610
O         64.68014       53.96781       69.13805
C         67.21655       54.12006       70.65271
C         68.64315       54.54853       70.88528
C         68.60469       55.99826       70.41388
H         67.25890       54.08725       68.44305
H         66.61448       54.64465       71.43329
H         67.01631       53.03031       70.73197
H         69.01897       54.41184       71.92173
H         69.28578       53.96321       70.18806
H         68.14666       56.66165       71.17335
H         69.64380       56.30188       70.19506
N         64.83962       56.20478       69.20201
C         63.40432       56.47157       69.18113
C         62.97944       57.26643       67.94723
O         61.78494       57.45825       67.76924
C         63.02604       57.29545       70.43023
C         63.47026       56.63894       71.74912
C         63.22072       57.51375       72.94925
O         63.62336       57.09513       74.16257
O         62.69253       58.60893       72.83996
H         65.45069       57.01662       69.29168
H         62.83940       55.51383       69.17688
H         61.92824       57.47339       70.45211
H         63.53135       58.28090       70.34457
H         64.56359       56.45016       71.71785
H         62.94362       55.67013       71.88168
N         63.88227       57.78829       67.06744
C         63.48632       58.56259       65.91228
H         62.91082       59.45675       66.23218
H         64.39014       58.90506       65.36205
H         62.87066       57.93996       65.23065
H         64.88542       57.66567       67.21625
Ca        63.77568       60.05236       76.07511
O         60.81619       61.21395       75.94781
H         60.84891       62.04990       75.42048
H         59.99147       61.29894       76.48844
O         60.42776       60.24960       73.29530
H         59.48763       60.44121       73.05408
H         60.93759       61.03272       72.96852

Ca 1.0



