%chk=holoCaM-CaMKII.loop2.water2.frame11.chk
%nprocshared=20
%mem=10GB
%nosave
#b3lyp/svp scf=(tight,noincore,xqc) Test 
#IOP(5/87=12) Density=Current Pop=(MK,readradii) iop(6/33=2) iop(6/42=6)

holoCaM-CaMKII.loop2.water2.frame11 

   -2  1 
C         60.34329       79.36237       15.79169
C         61.46314       79.65072       14.83027
O         62.61473       79.42411       15.17056
H         59.35275       79.58935       15.34088
H         60.35583       78.28589       16.06465
H         60.45983       79.97572       16.70814
N         61.18691       80.13636       13.59009
C         62.19574       80.36669       12.56259
C         63.21280       81.42243       12.96466
O         62.82966       82.54460       13.26277
C         61.49334       80.75440       11.24630
C         62.41820       81.03203       10.09223
O         62.31830       82.09020        9.49265
O         63.34722       80.14626        9.68425
H         60.19702       80.30129       13.34833
H         62.70957       79.40774       12.39108
H         60.85874       81.65267       11.41568
H         60.82588       79.91966       10.95095
N         64.54607       81.12523       12.92975
C         65.61123       82.07615       13.22238
C         66.48987       82.35743       12.00052
O         67.40340       83.16123       12.12818
C         66.47635       81.50113       14.35261
H         64.83113       80.17441       12.66027
H         65.18507       83.04604       13.55666
H         65.85549       81.30825       15.25274
H         66.93844       80.53977       14.03295
H         67.28912       82.20566       14.62948
N         66.31235       81.71370       10.80618
C         67.21045       81.85993        9.66275
C         66.45159       82.16472        8.36432
O         66.74571       83.18384        7.75458
C         68.15839       80.63584        9.60559
C         67.52059       79.28394        9.80262
O         67.82786       78.55554       10.89345
O         66.75070       78.82325        8.98521
H         65.57095       81.00889       10.72092
H         67.90178       82.72108        9.81254
H         68.86099       80.75341       10.46041
H         68.76692       80.65767        8.67631
N         65.45736       81.35777        7.89267
C         64.68810       81.61444        6.67373
C         64.67615       80.43951        5.69721
O         64.06965       80.56949        4.64361
H         65.20418       80.54037        8.44573
H         65.07386       82.51088        6.14199
H         63.63486       81.82137        6.96034
N         65.32540       79.27137        5.96892
C         65.42774       78.12098        5.06769
C         64.12400       77.34770        4.79246
O         64.19916       76.34553        4.09416
C         66.51522       77.15393        5.60325
C         66.22747       76.50786        6.93763
N         67.11433       75.62627        7.44653
O         65.21289       76.77122        7.56500
H         65.85788       79.21876        6.83867
H         65.81282       78.48669        4.09108
H         67.47074       77.71572        5.70002
H         66.67542       76.34706        4.85779
H         67.98101       75.39683        6.93987
H         66.93094       75.16463        8.34349
N         62.90285       77.74196        5.25442
C         61.66112       77.03613        4.94316
C         61.42486       75.75034        5.72519
O         60.37396       75.15621        5.52362
H         62.82136       78.62481        5.76785
H         61.60687       76.84171        3.84865
H         60.81095       77.70322        5.20040
N         62.31487       75.26237        6.63571
C         62.08962       74.06177        7.44312
C         62.21313       74.37119        8.93423
O         62.51874       75.49698        9.30453
C         63.11177       72.96354        7.03680
C         62.84946       72.45649        5.61795
O         64.42809       73.44933        7.11448
H         63.20382       75.75444        6.76764
H         61.06544       73.65618        7.28367
H         63.00849       72.06511        7.68554
H         64.66571       73.49445        8.07690
H         62.94894       73.27390        4.87453
H         63.57551       71.65372        5.36667
H         61.82572       72.02733        5.55234
N         62.03508       73.37473        9.84695
C         62.27034       73.50418       11.28031
C         63.55645       72.76418       11.59335
O         63.69535       71.60042       11.23785
C         61.04225       72.98535       12.09767
C         59.89026       74.02015       11.98496
C         61.40845       72.74261       13.57926
C         58.59674       73.62633       12.70230
H         61.79708       72.43157        9.50208
H         62.43686       74.56470       11.56943
H         60.71963       72.00448       11.68293
H         59.64805       74.18435       10.91355
H         60.22917       74.98600       12.41706
H         61.74195       73.68074       14.06435
H         60.55343       72.32333       14.14542
H         62.21198       71.98210       13.66573
H         58.20035       72.67461       12.29383
H         58.74697       73.53009       13.79703
H         57.84012       74.42584       12.55238
N         64.53620       73.39901       12.29650
C         65.81552       72.80336       12.64712
C         65.76416       72.30259       14.06991
O         64.72817       72.42545       14.70525
C         66.94171       73.84807       12.49653
C         67.01632       74.41764       11.11278
O         68.03169       74.28066       10.44963
O         65.97956       75.11896       10.61376
H         64.34154       74.33862       12.66838
H         66.02736       71.92723       11.99405
H         67.91809       73.38131       12.74649
H         66.77206       74.68866       13.20391
N         66.82882       71.66893       14.62747
C         66.78158       71.09803       15.96555
C         66.66390       72.18451       17.03883
O         65.75552       72.07250       17.84828
C         67.93913       70.09717       16.17394
C         67.63053       69.11204       17.27741
C         67.67108       69.48350       18.63112
C         67.27485       67.79182       16.93902
C         67.36453       68.54582       19.62528
C         66.96026       66.86452       17.93239
C         67.00705       67.23954       19.27557
H         67.67254       71.52201       14.05085
H         65.86771       70.45734       16.00161
H         68.93342       70.56000       16.31451
H         68.00126       69.51304       15.22889
H         67.94474       70.49070       18.91725
H         67.22408       67.48098       15.90222
H         67.40126       68.83069       20.66822
H         66.67785       65.85615       17.65721
H         66.76464       66.51664       20.04341
N         67.48246       73.29456       17.09379
C         67.35539       74.36773       18.08822
C         66.02753       75.11870       18.08058
O         65.85340       76.01178       18.89965
C         68.45270       75.36715       17.69252
C         69.48318       74.47516       17.04581
C         68.60120       73.55181       16.21357
H         67.55216       73.91863       19.08674
H         68.07530       76.02886       16.87599
H         68.81307       76.01297       18.52222
H         70.26492       75.01089       16.46679
H         69.96788       73.87434       17.84832
H         68.22236       74.07215       15.30557
H         69.18667       72.66098       15.93186
N         65.06251       74.83360       17.16751
C         63.79874       75.53106       17.03890
C         62.68650       74.63105       17.54400
O         61.88979       75.06876       18.36122
C         63.56090       75.87362       15.55875
C         64.69566       76.69097       14.91105
C         64.38061       76.98603       13.46877
O         65.23731       77.67392       12.70020
O         63.31690       76.64110       12.98226
H         65.22643       74.09282       16.48255
H         63.79174       76.47792       17.62531
H         62.60218       76.43261       15.47421
H         63.46976       74.92902       14.98197
H         65.64820       76.12127       14.95528
H         64.83001       77.65199       15.45252
N         62.59894       73.33695       17.12599
C         61.58520       72.42215       17.59257
H         60.58471       72.77085       17.26614
H         61.77093       71.41306       17.16273
H         61.62407       72.34343       18.69930
H         63.29532       72.96533       16.47509
Ca        64.22268       78.41239       10.82612
O         62.18738       78.14023        8.15031
H         61.46223       77.86274        8.76013
H         61.89617       79.02621        7.81925
O         61.00434       77.27594       11.23015
H         60.08924       77.58571       11.01716
H         61.02182       77.23615       12.21770

Ca 1.0



