%chk=holoCaM.loop3.water2.frame280.chk
%nprocshared=20
%mem=10GB
%nosave
#b3lyp/svp scf=(tight,noincore,xqc) Test 
#IOP(5/87=12) Density=Current Pop=(MK,readradii) iop(6/33=2) iop(6/42=6)

holoCaM.loop3.water2.frame280 

   0  1 
C         46.46635       88.11555       51.65712
C         47.58339       87.12364       51.77883
O         48.06985       86.91678       52.88163
H         45.62026       87.79127       52.29896
H         46.81528       89.11579       51.98671
H         46.10358       88.19044       50.61027
N         48.04488       86.46518       50.67981
C         49.07317       85.44028       50.75281
C         50.43874       86.06384       50.51319
O         50.66492       86.60842       49.44112
C         48.75671       84.34554       49.72143
C         49.66250       83.16710       49.83419
O         49.52106       82.23448       49.07166
O         50.60183       83.10094       50.78881
H         47.62290       86.67261       49.76086
H         49.03795       84.96416       51.76005
H         48.82886       84.76512       48.69381
H         47.71869       83.98013       49.87657
N         51.38532       86.05883       51.49702
C         52.65451       86.77656       51.36878
C         53.70072       86.01198       50.55412
O         54.69429       86.62196       50.18511
C         53.21150       87.17437       52.75707
C         52.19789       88.03524       53.54419
C         52.67382       88.44803       54.94401
C         53.85761       89.42146       54.92219
N         54.20501       89.83809       56.28070
H         51.13350       85.63953       52.40290
H         52.44524       87.73143       50.83632
H         54.14678       87.75240       52.60858
H         53.45680       86.26325       53.34167
H         51.26607       87.45606       53.68876
H         51.93711       88.94512       52.96220
H         52.94109       87.54868       55.53564
H         51.82146       88.95430       55.44894
H         53.58146       90.31889       54.32538
H         54.74235       88.94100       54.45400
H         53.38902       90.31271       56.73204
H         54.48716       89.00763       56.85071
H         55.00464       90.50995       56.23905
N         53.56236       84.68689       50.24984
C         54.50143       83.92786       49.41393
C         53.82118       83.32137       48.18645
O         54.51193       82.68857       47.39930
C         55.25675       82.86160       50.24901
C         54.40353       81.84343       50.95715
O         53.07015       81.83196       50.80544
O         54.92408       81.06670       51.74133
H         52.75541       84.19086       50.63796
H         55.28983       84.60584       49.01915
H         55.82573       83.40853       51.03237
H         55.99566       82.33119       49.60869
N         52.49389       83.51157       47.91895
C         51.85097       83.04921       46.69784
C         51.71278       81.54350       46.54985
O         51.23831       81.13194       45.49999
H         51.92032       84.08499       48.54957
H         52.42148       83.45019       45.83175
H         50.82534       83.47594       46.64804
N         52.08307       80.65245       47.51847
C         51.99743       79.20152       47.31759
C         50.56866       78.67219       47.15742
O         50.41624       77.49829       46.85269
C         52.70914       78.43920       48.46058
C         51.96692       78.48007       49.77914
N         51.58116       77.33403       50.38687
O         51.71504       79.54961       50.30666
H         52.49002       81.01037       48.39179
H         52.56138       78.98052       46.38411
H         53.72858       78.86051       48.59706
H         52.82962       77.37838       48.15206
H         51.78015       76.41526       49.96643
H         51.08189       77.36258       51.28700
N         49.48351       79.46127       47.39403
C         48.10424       79.01825       47.30323
C         47.40106       79.04880       48.64716
O         46.20036       78.80699       48.65576
H         49.62281       80.43158       47.67156
H         48.02528       77.98482       46.90362
H         47.57696       79.69589       46.59750
N         48.06444       79.27183       49.82533
C         47.40928       79.22291       51.12971
C         47.65155       80.49401       51.92822
O         48.60807       81.20842       51.66514
C         47.93777       78.03799       51.97005
C         47.70756       76.66545       51.37148
C         48.34347       76.26504       50.18109
C         46.87488       75.74672       52.03532
C         48.14576       74.98073       49.66662
C         46.67869       74.46271       51.51907
C         47.31540       74.07498       50.33246
O         47.14272       72.83647       49.82838
H         49.08342       79.42598       49.81412
H         46.31057       79.09902       51.00603
H         47.43925       78.08356       52.96363
H         49.02531       78.16354       52.14555
H         49.00593       76.93164       49.65040
H         46.37850       76.01988       52.95811
H         48.64658       74.68705       48.75244
H         46.03612       73.76881       52.04613
H         46.58515       72.17659       50.26486
N         46.83358       80.79914       52.97164
C         47.01488       81.93071       53.87800
C         47.11461       81.36488       55.28787
O         46.23496       80.60219       55.67217
C         45.81301       82.91552       53.76485
C         45.63880       83.41749       52.30662
C         46.01372       84.11268       54.72357
C         44.33218       84.18534       52.08631
H         46.02140       80.18277       53.14127
H         47.93878       82.50307       53.62885
H         44.89151       82.36376       54.05497
H         45.60040       82.55031       51.61473
H         46.50338       84.05231       52.01514
H         45.14835       84.80310       54.70641
H         46.12121       83.77165       55.77310
H         46.92738       84.68371       54.44681
H         44.28233       85.11062       52.69276
H         44.24920       84.47689       51.01822
H         43.46670       83.53493       52.33859
N         48.12900       81.71146       56.12867
C         48.27405       81.15645       57.47392
C         47.88024       82.16617       58.53868
O         47.55723       83.29640       58.20637
C         49.71748       80.66326       57.67037
O         50.61257       81.74080       57.56740
H         48.80800       82.41834       55.81416
H         47.59005       80.28973       57.60368
H         49.96754       79.91000       56.89252
H         49.80509       80.17330       58.66700
H         51.35022       81.57647       58.21063
N         47.84181       81.80579       59.85582
C         47.42454       82.71558       60.92551
C         48.40420       83.86139       61.17118
O         48.09879       84.72291       61.98401
C         47.23533       81.93715       62.23102
H         48.06504       80.82736       60.09733
H         46.43562       83.14338       60.64585
H         46.85609       82.60801       63.03156
H         46.49161       81.12597       62.08066
H         48.19794       81.48968       62.55904
N         49.58312       83.95122       60.49835
C         50.52512       85.05217       60.63823
C         50.37027       85.98150       59.45556
O         50.26192       87.18466       59.64638
C         51.95172       84.49617       60.70492
H         49.82004       83.22717       59.80982
H         50.34535       85.63424       61.56967
H         52.68274       85.32679       60.80634
H         52.05741       83.82276       61.58147
H         52.19725       83.92154       59.78487
N         50.30049       85.46954       58.19733
C         50.13202       86.26560       56.98942
C         48.88168       87.12309       57.09309
O         48.99377       88.33837       57.00357
C         50.12316       85.33686       55.74525
C         51.47686       84.59412       55.64042
C         51.63275       83.70028       54.45089
O         50.88104       82.59681       54.27676
O         52.53710       83.92024       53.66191
H         50.34424       84.44860       58.10085
H         51.00198       86.94980       56.88833
H         49.97098       85.94897       54.83302
H         49.28243       84.61747       55.81324
H         51.66757       83.95816       56.52345
H         52.28140       85.35586       55.60481
N         47.66618       86.56991       57.34747
C         46.48084       87.37390       57.55680
H         45.61470       86.71932       57.79272
H         46.63904       88.06198       58.41656
H         46.25098       87.96543       56.64673
H         47.58372       85.55147       57.43448
Ca        51.76339       81.39707       52.58795
O         51.06752       78.76368       53.77518
H         51.84388       78.16343       53.64362
H         50.38683       78.19904       54.21937
O         53.51968       80.20378       54.88672
H         53.16236       80.82605       55.56889
H         54.22632       80.72045       54.42458

Ca 1.0



