%chk=holoCaM-CaMKII.loop4.water2.frame192.chk
%nprocshared=20
%mem=10GB
%nosave
#b3lyp/svp scf=(tight,noincore,xqc) Test 
#IOP(5/87=12) Density=Current Pop=(MK,readradii) iop(6/33=2) iop(6/42=6)

holoCaM-CaMKII.loop4.water2.frame192 

   -3  1 
C         21.40675       55.72792       38.23742
C         22.28932       54.66328       38.81858
O         22.67797       53.74859       38.10941
H         20.43931       55.74067       38.78443
H         21.89426       56.71949       38.34212
H         21.20333       55.53420       37.16312
N         22.64204       54.72648       40.12972
C         23.44408       53.71121       40.80579
C         22.69881       52.38612       40.80863
O         21.57402       52.35877       41.29033
C         23.71886       54.17991       42.24897
C         24.49046       53.17452       43.04144
O         25.59145       52.81091       42.66900
O         23.96435       52.67296       44.17337
H         22.30757       55.53858       40.67322
H         24.42319       53.60435       40.28598
H         22.75607       54.37680       42.76973
H         24.29718       55.12912       42.21781
N         23.26145       51.25116       40.28521
C         22.53922       49.97846       40.20085
C         23.19026       48.86768       41.04286
O         22.58921       47.80716       41.13779
C         22.36582       49.49447       38.70951
C         22.45621       50.63984       37.66443
C         21.02342       48.74039       38.56627
C         22.39155       50.16265       36.20841
H         24.21640       51.30765       39.91154
H         21.52470       50.14082       40.62357
H         23.20988       48.81005       38.46630
H         23.44713       51.12751       37.76831
H         21.66159       51.39367       37.84028
H         20.93701       47.91069       39.29324
H         20.17828       49.44415       38.74133
H         20.90134       48.29727       37.55892
H         23.16829       49.39115       36.01571
H         21.39322       49.75179       35.95816
H         22.57820       51.02113       35.52877
N         24.40539       49.01207       41.66542
C         25.03626       47.94386       42.45567
C         25.25107       48.33909       43.91712
O         25.81703       47.54814       44.65915
C         26.33189       47.46363       41.76837
C         27.45798       48.45226       41.72733
O         28.43868       48.19734       41.04719
O         27.41407       49.61758       42.39869
H         24.92200       49.89699       41.56770
H         24.38143       47.04596       42.47402
H         26.06382       47.20079       40.71988
H         26.71001       46.53892       42.25590
N         24.75227       49.50522       44.42091
C         24.78075       49.85145       45.83359
C         26.12666       50.31994       46.33798
O         26.63411       49.74224       47.28864
H         24.21259       50.12799       43.80578
H         24.39900       48.99410       46.43139
H         24.08323       50.69831       45.99972
N         26.73725       51.40455       45.77809
C         27.97559       51.99427       46.29137
C         27.94571       53.53399       46.34188
O         28.95899       54.11799       46.70065
C         29.18064       51.44094       45.50825
C         29.21048       51.77711       44.04802
O         28.26493       52.55139       43.49159
O         30.11041       51.33634       43.35275
H         26.31440       51.80487       44.93168
H         28.14473       51.65467       47.33780
H         29.16890       50.33320       45.60842
H         30.11932       51.81248       45.97387
N         26.81951       54.25750       46.06043
C         26.72787       55.70734       46.20432
C         27.33214       56.52890       45.07661
O         27.16607       57.74052       45.12584
H         25.94130       53.76750       45.84624
H         27.13633       56.02078       47.18988
H         25.64759       55.97306       46.20301
N         27.99565       55.97886       44.01873
C         28.44447       56.75733       42.86090
C         27.81307       56.21664       41.58702
O         27.13681       55.19619       41.63059
C         29.98129       56.70104       42.72595
C         30.71003       57.40158       43.87716
C         32.20262       57.33931       43.66099
N         33.00779       56.71955       44.55413
O         32.69070       57.85422       42.66507
H         28.16289       54.96526       44.00564
H         28.13559       57.82242       42.95061
H         30.28642       57.20957       41.78589
H         30.31075       55.64183       42.66732
H         30.43724       56.91809       44.83884
H         30.40271       58.46957       43.92083
H         32.61942       56.27850       45.39994
H         34.02580       56.67712       44.39667
N         28.01433       56.85841       40.39900
C         27.54309       56.35191       39.11644
C         28.75684       56.09538       38.24276
O         29.44310       57.03650       37.86495
C         26.55279       57.35100       38.45632
C         26.15119       56.91088       37.03711
C         25.28532       57.49773       39.31223
H         28.55689       57.73675       40.39415
H         27.00388       55.38798       39.25570
H         27.04272       58.34728       38.37592
H         27.03807       56.87012       36.37250
H         25.66665       55.91165       37.05162
H         25.44828       57.64723       36.59251
H         24.59230       58.23292       38.84976
H         24.75974       56.52210       39.39582
H         25.53476       57.85669       40.33216
N         29.09444       54.81938       37.91228
C         30.23907       54.47548       37.07398
C         29.98164       54.88845       35.62600
O         28.87658       55.30242       35.30824
C         30.48531       52.95054       37.20704
C         31.68693       52.41260       36.47705
N         32.93088       52.86715       36.75341
O         31.53647       51.53788       35.63778
H         28.53046       54.05697       38.31277
H         31.13041       55.01173       37.46736
H         29.57668       52.40979       36.86450
H         30.63254       52.72159       38.28376
H         33.08158       53.59744       37.46368
H         33.74684       52.48809       36.25047
N         30.96849       54.80604       34.68846
C         30.76484       55.12435       33.27782
C         29.75429       54.17686       32.66044
O         28.84177       54.63224       31.98719
C         32.09295       55.01909       32.50023
C         31.90074       55.41987       31.05478
C         31.50601       56.72994       30.72949
C         32.09504       54.48702       30.02309
C         31.30310       57.09768       29.39765
C         31.89004       54.85741       28.69018
C         31.49174       56.16488       28.37382
O         31.28631       56.53503       27.09397
H         31.90755       54.51089       34.98728
H         30.40180       56.17218       33.19521
H         32.47333       53.97574       32.57267
H         32.85383       55.68835       32.95627
H         31.35153       57.46796       31.50645
H         32.39398       53.47108       30.24922
H         30.99547       58.10899       29.16281
H         32.03707       54.12671       27.90515
H         31.40178       55.92026       26.35570
N         29.86441       52.83543       32.86444
C         28.90758       51.85579       32.36496
C         27.50956       52.19320       32.85543
O         26.59672       52.27721       32.04580
C         29.33747       50.43922       32.82582
C         28.44752       49.32221       32.25690
C         28.96987       47.96529       32.64210
O         30.08429       47.61191       32.28875
O         28.20381       47.12312       33.36143
H         30.65249       52.50123       33.43835
H         28.92052       51.86629       31.25237
H         29.34086       50.37819       33.93777
H         30.37730       50.26858       32.46845
H         28.42856       49.38605       31.14798
H         27.41000       49.43746       32.63804
N         27.27893       52.40690       34.18031
C         25.94534       52.65985       34.72790
C         25.35621       53.99041       34.27322
O         24.16712       54.20031       34.47031
C         25.96793       52.60632       36.26939
C         26.52387       51.25851       36.75679
C         26.55849       51.15805       38.23718
O         26.06344       50.18662       38.78538
O         27.17317       52.09615       38.97888
H         28.08937       52.35260       34.81197
H         25.28093       51.84162       34.36945
H         24.93582       52.74461       36.65965
H         26.60198       53.43476       36.65958
H         27.56999       51.12115       36.43213
H         25.92084       50.42281       36.34018
N         26.12290       54.94669       33.68275
C         25.59065       56.20587       33.21382
H         25.11644       56.75912       34.05052
H         26.41339       56.82758       32.79748
H         24.84657       56.02367       32.41023
H         27.12673       54.79192       33.57448
Ca        27.46536       51.38981       41.05861
O         30.37261       53.24467       40.95812
H         31.16600       53.03273       41.51137
H         29.71946       53.62648       41.59541
O         29.81989       50.35983       39.08439
H         29.88850       50.21295       40.06089
H         29.28685       49.59622       38.74890

Ca 1.0



