%chk=holoCaM.loop1.water2.frame262.chk
%nprocshared=20
%mem=10GB
%nosave
#b3lyp/svp scf=(tight,noincore,xqc) Test 
#IOP(5/87=12) Density=Current Pop=(MK,readradii) iop(6/33=2) iop(6/42=6)

holoCaM.loop1.water2.frame262 

   0  1 
C         43.48150       23.08667       53.09246
C         43.01711       22.67238       51.73263
O         43.68167       22.97964       50.75331
H         44.42981       23.66068       53.02263
H         42.70743       23.72333       53.56874
H         43.65212       22.18390       53.71558
N         41.88055       21.93747       51.59718
C         41.39943       21.49572       50.29902
C         40.89999       22.69355       49.49777
O         40.10882       23.44613       50.05188
C         40.25429       20.46846       50.45830
C         40.06053       19.71418       49.17502
O         40.96399       19.86574       48.18910
O         39.14900       18.91368       49.05397
H         41.37103       21.65299       52.44880
H         42.24959       20.98099       49.80414
H         39.31887       20.98295       50.77270
H         40.51054       19.70864       51.22769
N         41.28239       22.93443       48.20272
C         40.88032       24.15312       47.49383
C         39.81981       23.92818       46.42199
O         39.25526       24.91705       45.97364
C         42.09575       24.86154       46.85610
C         43.34550       24.97789       47.74610
C         43.14196       25.61778       49.12380
C         42.59469       27.04519       49.08082
N         42.51894       27.59242       50.43580
H         41.88270       22.25436       47.71868
H         40.42082       24.85214       48.22521
H         41.77940       25.86953       46.50891
H         42.41496       24.28683       45.95752
H         44.11639       25.54851       47.18315
H         43.75015       23.95751       47.91520
H         44.13195       25.62577       49.63074
H         42.45424       24.99413       49.72762
H         41.57843       27.04185       48.63033
H         43.25785       27.68650       48.46032
H         43.47830       27.65168       50.84953
H         42.10523       28.55104       50.39995
H         41.91755       26.98450       51.03918
N         39.50571       22.69075       45.93795
C         38.44196       22.46468       44.95573
C         37.40484       21.44714       45.44613
O         36.52936       21.08909       44.67036
C         38.99550       22.23861       43.51923
C         40.00199       21.15526       43.30054
O         40.45833       20.42690       44.31608
O         40.45175       20.96379       42.18214
H         40.03842       21.87515       46.27007
H         37.84291       23.39137       44.81710
H         39.49323       23.17986       43.19852
H         38.13979       22.06144       42.83255
N         37.33317       21.07600       46.76294
C         36.19448       20.36071       47.33291
C         36.06386       18.88774       46.98571
O         35.09146       18.29286       47.42872
H         38.02307       21.44503       47.43293
H         35.26292       20.89160       47.03616
H         36.26182       20.41910       48.44164
N         36.97976       18.21647       46.23315
C         36.85224       16.78904       45.89568
C         36.96833       15.82878       47.10078
O         36.88056       14.62755       46.88183
C         37.90632       16.39927       44.82403
C         39.29031       16.67501       45.31571
O         39.64256       16.26126       46.40236
O         40.09606       17.52162       44.67059
H         37.77706       18.74815       45.85626
H         35.85613       16.62665       45.43060
H         37.73048       16.98949       43.89817
H         37.80864       15.32355       44.56859
N         37.17618       16.25450       48.38016
C         37.33669       15.35931       49.51786
C         38.64480       14.59343       49.48547
O         38.64713       13.43266       49.85333
H         37.21728       17.25938       48.58732
H         36.46673       14.67002       49.61563
H         37.36615       15.97719       50.44022
N         39.80880       15.23352       49.16452
C         41.14973       14.62626       49.22006
C         42.24214       15.70601       49.16937
O         41.96342       16.86591       48.91391
C         41.42510       13.56590       48.09944
C         40.72502       12.20887       48.25550
O         41.18618       14.09578       46.82289
H         39.72479       16.23317       48.94258
H         41.26850       14.15985       50.22131
H         42.50218       13.29894       48.14448
H         40.22368       13.96481       46.61616
H         41.08756       11.52199       47.46130
H         40.96878       11.76603       49.24366
H         39.63185       12.28150       48.11838
N         43.53031       15.36451       49.48403
C         44.63366       16.31781       49.55429
C         45.74981       15.88335       48.61093
O         46.37359       14.85870       48.84243
C         45.09314       16.44491       51.04749
C         44.01405       17.24100       51.83652
C         46.46889       17.11579       51.19852
C         44.27227       17.35282       53.34060
H         43.73311       14.38921       49.74235
H         44.30764       17.32095       49.22537
H         45.19665       15.42046       51.46942
H         43.02643       16.75049       51.71128
H         43.94047       18.27142       51.41929
H         46.79841       17.12838       52.25614
H         47.24965       16.54067       50.66343
H         46.43556       18.15146       50.82215
H         44.31644       16.34313       53.79836
H         45.20845       17.90436       53.56034
H         43.44284       17.92316       53.81032
N         46.05891       16.65256       47.52141
C         47.20684       16.39457       46.64604
C         48.49896       16.75018       47.36867
O         48.44300       17.19969       48.49850
C         47.13446       17.25866       45.34894
C         45.91365       16.94034       44.48076
O         47.21151       18.63473       45.63864
H         45.46081       17.46593       47.32343
H         47.20896       15.32531       46.34023
H         48.00617       17.01428       44.70719
H         46.30571       18.95694       45.87644
H         45.96424       17.53365       43.54347
H         45.89702       15.86230       44.21644
H         44.98063       17.20397       45.01134
N         49.70627       16.64246       46.74918
C         50.93081       17.21537       47.30830
C         50.80379       18.73739       47.38928
O         51.11016       19.30197       48.43002
C         52.17252       16.82801       46.46987
C         52.43255       15.31660       46.53599
O         52.01443       17.23457       45.13492
H         49.74499       16.20261       45.81820
H         51.10981       16.81353       48.33224
H         53.05341       17.34540       46.91912
H         52.91414       17.20095       44.71655
H         52.57948       15.00088       47.59164
H         51.58634       14.74223       46.10579
H         53.35427       15.06625       45.97022
N         50.31921       19.45692       46.32953
C         50.17824       20.92083       46.30654
C         49.25370       21.47623       47.39822
O         49.21022       22.68594       47.56871
C         49.68096       21.34371       44.89900
C         49.62357       22.85978       44.64741
C         49.21863       23.14849       43.19722
C         49.17692       24.65666       42.92133
N         48.82800       24.91961       41.52570
H         50.05265       18.93010       45.48359
H         51.19159       21.34837       46.47156
H         48.67241       20.90724       44.72127
H         50.38357       20.90804       44.15461
H         50.62585       23.29895       44.84350
H         48.87622       23.33983       45.31098
H         48.21434       22.71237       42.99841
H         49.95577       22.67534       42.51264
H         50.17390       25.10121       43.13723
H         48.42577       25.13799       43.58702
H         47.88478       24.52322       41.30857
H         48.80793       25.95254       41.36572
H         49.54340       24.49396       40.89208
N         48.51833       20.66349       48.20067
C         47.66276       21.12910       49.28214
C         48.33252       20.77849       50.59954
O         48.54243       21.67334       51.40698
C         46.25638       20.52022       49.10106
C         45.57988       21.11023       47.84787
C         44.25751       20.47788       47.52029
O         43.75071       19.49025       48.27823
O         43.64142       20.85187       46.53560
H         48.56138       19.64999       48.06014
H         47.54866       22.23681       49.27756
H         45.62048       20.74169       49.98648
H         46.34597       19.41861       48.99043
H         46.23908       20.97533       46.96731
H         45.42717       22.19928       48.00228
N         48.77734       19.51998       50.85567
C         49.52844       19.18348       52.04381
H         50.45236       19.80029       52.08983
H         48.91323       19.35730       52.94952
H         49.82910       18.11385       52.00762
H         48.62522       18.78146       50.16732
Ca        40.90756       18.84581       46.24529
O         43.04125       15.88857       45.82166
H         42.35687       16.49798       46.19320
H         42.83288       15.84388       44.85486
O         43.25160       18.94387       43.84281
H         43.91763       18.77029       43.13194
H         42.38152       18.89335       43.37514

Ca 1.0



