%chk=holoCaM-CaMKII.loop4.water1.frame220.chk
%nprocshared=20
%mem=10GB
%nosave
#b3lyp/svp scf=(tight,noincore,xqc) Test 
#IOP(5/87=12) Density=Current Pop=(MK,readradii) iop(6/33=2) iop(6/42=6)

holoCaM-CaMKII.loop4.water1.frame220 

   -3  1 
C         37.55396       60.07849       43.43442
C         38.49828       60.50318       42.34696
O         39.13865       59.65138       41.75486
H         36.79100       59.38844       43.01856
H         38.12081       59.56192       44.23678
H         37.03126       60.95039       43.88299
N         38.62377       61.81724       42.02325
C         39.52038       62.32677       40.98761
C         40.97279       62.07219       41.37449
O         41.37142       62.49680       42.45023
C         39.23312       63.83038       40.82090
C         39.98258       64.54204       39.73444
O         39.81617       64.21044       38.43858
O         40.61379       65.54504       40.01726
H         38.03101       62.49023       42.53545
H         39.27416       61.82507       40.03123
H         39.42190       64.34547       41.78954
H         38.15280       63.94988       40.58205
N         41.81716       61.38312       40.54522
C         43.20269       61.04387       40.89626
C         44.21140       61.79970       40.02104
O         45.38313       61.79767       40.36899
C         43.43315       59.48828       40.80156
C         42.31203       58.70627       41.53382
C         44.81937       59.06954       41.34322
C         42.40409       57.18239       41.38898
H         41.45232       61.07653       39.63633
H         43.38953       61.36482       41.94421
H         43.38212       59.19908       39.72927
H         41.34776       58.98654       41.07448
H         42.29069       58.97396       42.61216
H         44.91476       59.33774       42.41685
H         44.98855       57.98186       41.22769
H         45.64813       59.52794       40.77596
H         41.51584       56.71252       41.86129
H         42.42370       56.89559       40.31572
H         43.29866       56.77247       41.89849
N         43.85238       62.47107       38.88484
C         44.82119       63.16218       38.02785
C         44.57964       64.66639       37.96523
O         45.31450       65.34858       37.26439
C         44.85888       62.50789       36.62830
C         43.59364       62.60827       35.81494
O         42.50699       63.25572       36.27495
O         43.55836       62.09957       34.70612
H         42.86625       62.48028       38.59456
H         45.84935       63.04529       38.43489
H         45.10854       61.43173       36.75870
H         45.68027       62.97329       36.04021
N         43.61634       65.26500       38.71890
C         43.41334       66.70102       38.77031
C         42.86762       67.27471       37.48598
O         43.41921       68.24517       36.98776
H         43.02976       64.69582       39.34425
H         44.35229       67.21101       39.07770
H         42.65823       66.91675       39.55389
N         41.73615       66.75491       36.93394
C         41.00625       67.36931       35.82774
C         39.56592       67.70602       36.23944
O         38.80533       68.16480       35.39852
C         41.08671       66.49412       34.55589
C         40.46317       65.12662       34.62028
O         40.50346       64.40922       33.63423
O         39.86361       64.67410       35.73244
H         41.34705       65.90047       37.35341
H         41.48341       68.33265       35.54089
H         42.16046       66.36889       34.29501
H         40.60091       67.04800       33.72287
N         39.14190       67.56565       37.53348
C         37.82391       67.94364       38.01871
C         36.69562       66.99700       37.65355
O         35.59723       67.23837       38.13423
H         39.80685       67.26557       38.25665
H         37.58744       68.98317       37.70255
H         37.86352       67.94003       39.13070
N         36.85814       65.91376       36.83702
C         35.77446       64.98584       36.52056
C         36.18351       63.54970       36.79959
O         37.13671       63.06547       36.20503
C         35.36028       65.11275       35.04622
C         34.70555       66.47122       34.75944
C         34.20496       66.53753       33.34064
N         34.65066       67.49167       32.49213
O         33.37563       65.72609       32.95538
H         37.76990       65.74491       36.39913
H         34.86885       65.21375       37.12493
H         34.60720       64.32077       34.83270
H         36.23828       64.95395       34.38135
H         35.43322       67.28752       34.95604
H         33.83432       66.61115       35.43668
H         35.34166       68.19158       32.79821
H         34.29760       67.53380       31.52472
N         35.45412       62.79252       37.66722
C         35.69247       61.37008       37.90435
C         35.41771       60.59110       36.62092
O         34.37634       60.78965       36.01050
C         34.79066       60.84212       39.06329
C         35.00992       59.33645       39.30565
C         35.08510       61.58586       40.37982
H         34.66571       63.24431       38.15351
H         36.74683       61.21723       38.23012
H         33.72101       60.99891       38.79944
H         34.36540       58.97990       40.13705
H         34.73538       58.74851       38.40873
H         36.07141       59.12767       39.56327
H         36.14490       61.44277       40.67846
H         34.88969       62.67307       40.29426
H         34.43319       61.19845       41.19184
N         36.28891       59.62944       36.20562
C         36.10296       58.79722       35.01684
C         35.68604       57.38901       35.44118
O         35.61278       57.12590       36.63273
C         37.44164       58.82223       34.23233
C         37.47916       58.01443       32.96021
N         36.65797       58.30241       31.92504
O         38.27812       57.09501       32.85795
H         37.10492       59.43187       36.80158
H         35.28211       59.20079       34.38513
H         38.24460       58.44718       34.90669
H         37.68380       59.87529       33.97249
H         35.98448       59.07869       31.98568
H         36.69845       57.74420       31.05893
N         35.35450       56.43523       34.52015
C         34.99661       55.06717       34.88802
C         36.16096       54.38689       35.57788
O         35.97020       53.79935       36.63147
C         34.62176       54.22273       33.64659
C         34.29518       52.80451       34.07245
C         33.17464       52.54387       34.88046
C         35.14101       51.74121       33.71127
C         32.91025       51.24569       35.32596
C         34.87807       50.44458       34.16428
C         33.76241       50.19350       34.97636
O         33.50397       48.95085       35.43149
H         35.35279       56.68390       33.52218
H         34.11370       55.08968       35.56519
H         35.48382       54.22136       32.94317
H         33.75377       54.66405       33.11164
H         32.51128       53.34725       35.17476
H         36.01849       51.91801       33.10167
H         32.04782       51.06002       35.95388
H         35.54784       49.63837       33.89261
H         34.07722       48.19811       35.22776
N         37.39280       54.38755       34.99987
C         38.54650       53.70542       35.57620
C         38.99957       54.31431       36.90458
O         39.90670       53.75324       37.50353
C         39.71331       53.68772       34.56325
C         39.34079       52.90342       33.28922
C         40.47528       52.88807       32.30792
O         40.32689       53.35904       31.19135
O         41.65713       52.33913       32.64703
H         37.49727       54.87434       34.09813
H         38.26327       52.64702       35.77360
H         40.59361       53.18982       35.02643
H         39.99615       54.73234       34.30342
H         38.45262       53.35322       32.79753
H         39.08797       51.85502       33.55835
N         38.41065       55.42399       37.44663
C         38.77801       55.98371       38.74368
C         37.65381       55.83673       39.76663
O         37.89674       56.10898       40.93449
C         39.14051       57.46768       38.57995
C         40.29301       57.67414       37.58924
C         40.58901       59.13298       37.45455
O         41.67237       59.56714       37.80378
O         39.67841       59.97140       36.92496
H         37.66805       55.90438       36.93253
H         39.65214       55.43716       39.15987
H         39.43161       57.88851       39.56814
H         38.24181       58.01531       38.22352
H         40.03928       57.27267       36.58535
H         41.18990       57.14090       37.97314
N         36.40690       55.40746       39.42132
C         35.35367       55.19104       40.38678
H         34.42730       54.86682       39.86302
H         35.65385       54.38703       41.09155
H         35.13998       56.12629       40.94352
H         36.17467       55.22750       38.44402
Ca        39.68706       62.12765       37.57612
O         40.30438       60.95282       34.05137
H         40.78248       60.10654       33.86229
H         40.67391       61.59792       33.39781

Ca 1.0



