%chk=holoCaM-CaMKII.loop1.water2.frame346.chk
%nprocshared=20
%mem=10GB
%nosave
#b3lyp/svp scf=(tight,noincore,xqc) Test 
#IOP(5/87=12) Density=Current Pop=(MK,readradii) iop(6/33=2) iop(6/42=6)

holoCaM-CaMKII.loop1.water2.frame346 

   0  1 
C         24.04812       79.85965       52.20947
C         24.23051       81.28513       52.63058
O         23.24452       81.93584       52.94248
H         23.39549       79.81360       51.31455
H         25.02113       79.37878       51.97553
H         23.57265       79.29696       53.04147
N         25.47540       81.83065       52.70967
C         25.70082       83.16903       53.23365
C         25.13265       84.22126       52.27988
O         25.55669       84.24489       51.13183
C         27.21677       83.38391       53.48694
C         27.48073       84.44654       54.51306
O         26.45205       84.98820       55.18412
O         28.62418       84.74595       54.80170
H         26.28812       81.24142       52.46981
H         25.19060       83.19647       54.21610
H         27.74147       83.59562       52.52950
H         27.65841       82.46204       53.92454
N         24.15988       85.10365       52.66896
C         23.51752       86.05548       51.75427
C         23.81409       87.52296       52.05961
O         23.43280       88.34979       51.24602
C         22.00199       85.77565       51.69407
C         21.73365       84.49011       50.89655
C         20.24508       84.12643       50.85704
C         19.93731       83.02148       49.82793
N         20.67849       81.78311       50.07443
H         23.83297       85.07722       53.64543
H         23.92540       85.93326       50.72582
H         21.48148       86.59746       51.15495
H         21.58844       85.72102       52.72592
H         22.30119       83.64465       51.33073
H         22.09148       84.66290       49.85725
H         19.65384       85.01879       50.55671
H         19.91662       83.81633       51.87343
H         20.17965       83.39402       48.80728
H         18.84598       82.80851       49.85991
H         20.37363       81.06580       49.37711
H         21.70430       81.93554       49.94445
H         20.48534       81.42736       51.03789
N         24.57068       87.91546       53.12546
C         25.14724       89.26813       53.23163
C         26.67263       89.20173       53.07547
O         27.29510       90.25621       53.02261
C         24.71650       90.02741       54.52267
C         25.13555       89.35927       55.80043
O         24.89406       89.85616       56.88824
O         25.71573       88.16281       55.70876
H         24.84098       87.20082       53.80790
H         24.79377       89.89438       52.38484
H         23.61112       90.14076       54.52858
H         25.16562       91.04454       54.49716
N         27.34063       88.01534       52.94030
C         28.75684       87.90612       52.64271
C         29.65310       88.47548       53.71480
O         30.44773       89.35114       53.40752
H         26.83330       87.12041       52.98005
H         28.95918       88.40485       51.66985
H         29.01631       86.83019       52.52558
N         29.61897       87.98316       54.98461
C         30.55086       88.39655       56.03488
C         31.40451       87.21618       56.51502
O         32.14395       87.37068       57.47770
C         29.77132       89.08062       57.17956
C         28.88447       88.18338       57.99323
O         28.86825       86.97835       57.81163
O         28.12677       88.71829       58.96850
H         28.91927       87.26046       55.20928
H         31.25275       89.16767       55.65170
H         29.15160       89.88986       56.73453
H         30.49107       89.55074       57.88296
N         31.37069       86.01444       55.86745
C         32.12876       84.83940       56.25197
C         31.67077       84.25244       57.56630
O         32.52007       83.98005       58.39425
H         30.80543       85.91322       55.01583
H         33.21846       85.06618       56.26753
H         31.96399       84.05589       55.48031
N         30.35202       83.96895       57.78751
C         29.81004       83.30427       58.98040
C         28.31620       83.00930       58.79001
O         27.51472       83.92329       58.65406
C         29.98909       84.09594       60.31370
C         31.25889       83.75830       61.10276
O         29.91920       85.47939       60.10236
H         29.69331       84.20272       57.03155
H         30.31393       82.32081       59.09359
H         29.19061       83.77028       61.02392
H         28.96043       85.70549       60.03102
H         32.19156       84.08271       60.62319
H         31.22351       84.27173       62.08628
H         31.30393       82.66302       61.29011
N         27.89489       81.71309       58.77953
C         26.50922       81.26674       58.63282
C         25.70789       81.53211       59.90285
O         26.15353       81.16579       60.98161
C         26.49845       79.74693       58.26320
C         27.14582       79.57858       56.85676
C         25.07054       79.16019       58.27969
C         27.31863       78.13033       56.40581
H         28.61880       80.98327       58.86270
H         26.03113       81.78488       57.77640
H         27.09273       79.18888       59.02138
H         28.16006       80.02976       56.85210
H         26.53595       80.11901       56.09873
H         25.08178       78.07578       58.05293
H         24.62564       79.24397       59.29233
H         24.41618       79.68279       57.55086
H         26.34299       77.61923       56.28923
H         27.82020       78.12010       55.41461
H         27.95121       77.57680       57.13072
N         24.44940       82.05819       59.81266
C         23.53554       82.21960       60.94529
C         22.36755       81.25147       60.81160
O         22.31387       80.50928       59.84483
C         23.00680       83.67733       61.02055
C         24.13462       84.69839       61.17866
O         22.19808       83.98868       59.91060
H         24.08787       82.28456       58.87676
H         24.05470       81.98032       61.89933
H         22.36866       83.78125       61.92339
H         22.78656       84.14392       59.12858
H         24.72420       84.48269       62.09386
H         24.80587       84.66499       60.29614
H         23.70250       85.71794       61.26487
N         21.39092       81.19946       61.75950
C         20.22007       80.32805       61.66110
C         19.36245       80.69064       60.45703
O         19.01876       79.80093       59.69183
C         19.35705       80.38553       62.94797
C         20.11221       79.82386       64.15919
O         18.94579       81.70324       63.20835
H         21.48401       81.80917       62.58494
H         20.54944       79.26871       61.55264
H         18.46344       79.73771       62.77845
H         18.16622       81.64609       63.82092
H         20.41539       78.77252       63.96555
H         21.01763       80.42289       64.38591
H         19.45120       79.83462       65.05134
N         18.97141       81.97990       60.23652
C         18.07196       82.37783       59.15375
C         18.61618       81.93988       57.80445
O         17.90962       81.28476       57.05143
C         17.85340       83.91101       59.17052
C         16.61688       84.30348       58.34021
C         16.34588       85.81555       58.31560
C         17.32960       86.57663       57.41365
N         16.98868       87.99839       57.35505
H         19.32062       82.70790       60.87793
H         17.08889       81.88935       59.33758
H         18.77524       84.42643       58.82451
H         17.64973       84.24035       60.21325
H         15.74078       83.81567       58.82238
H         16.68650       83.92663       57.29747
H         16.35517       86.22434       59.35047
H         15.32724       85.96692       57.89679
H         17.27342       86.15196       56.38594
H         18.37085       86.46398       57.78265
H         17.08594       88.43007       58.30242
H         17.63851       88.47992       56.69239
H         16.00839       88.12252       57.01058
N         19.90406       82.22803       57.47450
C         20.56095       81.80159       56.23992
C         20.43885       80.29791       56.06240
O         19.95476       79.86417       55.02585
C         22.04115       82.24204       56.27109
C         22.14942       83.77780       56.17656
C         23.54574       84.29219       56.34774
O         23.75174       85.49093       56.26155
O         24.56842       83.46259       56.62139
H         20.46090       82.73712       58.17752
H         20.07606       82.28364       55.36118
H         22.59546       81.80311       55.41540
H         22.50758       81.86507       57.20677
H         21.53268       84.26809       56.95630
H         21.76998       84.09633       55.18123
N         20.80545       79.44260       57.05146
C         20.63250       78.01109       56.94289
H         19.56094       77.77316       56.76667
H         21.24522       77.61437       56.10725
H         20.94761       77.51989       57.88843
H         21.18038       79.82112       57.92522
Ca        26.44414       86.45071       56.87551
O         26.53232       86.56805       60.10170
H         25.70571       87.08510       60.26296
H         27.10744       86.78650       60.87711
O         23.72247       87.33321       58.48387
H         23.18515       87.95984       57.93758
H         23.33663       87.40265       59.39233

Ca 1.0



