%chk=holoCaM.loop4.water3.frame278.chk
%nprocshared=20
%mem=10GB
%nosave
#b3lyp/svp scf=(tight,noincore,xqc) Test 
#IOP(5/87=12) Density=Current Pop=(MK,readradii) iop(6/33=2) iop(6/42=6)

holoCaM.loop4.water3.frame278 

   -3  1 
C         38.66528       90.78770       67.77242
C         39.22124       89.47254       67.32031
O         40.35530       89.45405       66.86813
H         37.65173       90.67453       68.20768
H         39.33662       91.20002       68.55816
H         38.62848       91.49962       66.92316
N         38.50053       88.31851       67.43960
C         39.11693       87.00956       67.25808
C         38.06991       85.92629       67.01635
O         37.17953       85.78812       67.84456
C         39.89804       86.69185       68.55863
C         40.75811       85.46623       68.49532
O         41.42670       85.07397       69.59493
O         40.88959       84.84279       67.45892
H         37.55432       88.36886       67.84727
H         39.82189       87.04335       66.40003
H         39.17225       86.57672       69.39368
H         40.57336       87.53505       68.81278
N         38.15728       85.07139       65.94681
C         37.25531       83.92671       65.77985
C         37.96340       82.59600       66.03295
O         37.25876       81.60237       66.14979
C         36.53419       83.90043       64.39359
C         37.51928       83.68662       63.21304
C         35.67327       85.15891       64.19790
C         36.82079       83.35954       61.89081
H         38.93097       85.19141       65.28008
H         36.46225       83.97580       66.55720
H         35.84492       83.02597       64.41231
H         38.17600       82.81798       63.43057
H         38.15809       84.57932       63.07748
H         36.30593       86.06916       64.15700
H         35.07879       85.09675       63.26357
H         34.95305       85.26051       65.03630
H         36.19698       82.44674       62.00199
H         36.19018       84.19760       61.53369
H         37.58679       83.15420       61.11713
N         39.32685       82.47387       66.08902
C         40.00036       81.19519       66.29710
C         40.96997       81.24080       67.47466
O         40.77074       80.46949       68.40361
C         40.60701       80.69161       64.96657
C         41.57325       81.60755       64.26223
O         42.81702       81.79847       64.73461
O         41.25901       82.10960       63.19496
H         39.91821       83.29162       65.90586
H         39.25200       80.41223       66.55600
H         39.74245       80.54076       64.28188
H         41.08548       79.69963       65.11282
N         42.03999       82.08841       67.51470
C         43.00823       82.10397       68.60294
C         44.37401       81.69547       68.10465
O         44.88745       80.69402       68.58434
H         42.18571       82.75334       66.74776
H         42.71052       81.40671       69.41666
H         43.05852       83.11554       69.04923
N         45.02667       82.41767       67.14486
C         46.33624       82.03135       66.61633
C         47.43523       83.05203       66.89057
O         48.57098       82.75708       66.54417
C         46.23630       81.70240       65.10736
C         45.86941       82.84983       64.19799
O         45.64491       84.08715       64.67349
O         45.78406       82.65244       62.99696
H         44.56513       83.25635       66.76631
H         46.67590       81.09638       67.11219
H         45.48294       80.89647       64.97468
H         47.21731       81.30664       64.76536
N         47.20094       84.25526       67.49521
C         48.26168       85.21668       67.77301
C         48.16692       86.47410       66.93399
O         49.06786       87.29461       67.04369
H         46.24686       84.51010       67.77286
H         49.25690       84.77693       67.55348
H         48.24886       85.47581       68.85349
N         47.13722       86.70608       66.06903
C         47.10326       87.86456       65.17662
C         45.70998       88.12275       64.61205
O         44.78444       87.37237       64.88889
C         48.18338       87.71908       64.07131
C         48.07807       86.40351       63.27200
C         49.16490       86.26762       62.22681
N         49.25726       85.13561       61.49134
O         49.97163       87.16847       62.04334
H         46.36002       86.03668       66.03813
H         47.32044       88.77757       65.77418
H         49.18494       87.73963       64.55046
H         48.13902       88.58474       63.37793
H         47.08813       86.33579       62.77268
H         48.18119       85.54818       63.97450
H         48.59760       84.35751       61.63646
H         49.99886       85.03162       60.78214
N         45.48492       89.23434       63.85401
C         44.16297       89.67074       63.42121
C         44.07209       89.55197       61.91414
O         44.93721       90.06116       61.21446
C         43.90026       91.13126       63.89361
C         42.46518       91.57426       63.55490
C         44.12031       91.29016       65.40794
H         46.28267       89.83940       63.60636
H         43.37428       89.03323       63.87520
H         44.61529       91.81134       63.37956
H         42.28037       91.52696       62.46383
H         41.72494       90.92521       64.07196
H         42.29675       92.62337       63.87905
H         43.95027       92.34619       65.70908
H         43.42436       90.64674       65.98291
H         45.16301       91.03006       65.68608
N         43.01114       88.91318       61.34936
C         42.83794       88.72625       59.91320
C         41.85179       89.77677       59.40134
O         41.35517       90.55274       60.20627
C         42.34084       87.26778       59.71751
C         42.39917       86.65997       58.33733
N         41.88116       85.42562       58.13789
O         42.94142       87.23724       57.40998
H         42.25541       88.58206       61.96743
H         43.81224       88.87223       59.39862
H         41.29859       87.20923       60.10301
H         42.96728       86.59945       60.34550
H         41.43380       84.91249       58.91210
H         41.92176       84.98199       57.20857
N         41.54573       89.90688       58.07916
C         40.56944       90.87418       57.59102
C         39.18207       90.52141       58.10044
O         38.46480       91.40796       58.53607
C         40.55652       90.92774       56.04972
C         39.68944       92.07212       55.57225
C         40.04516       93.39948       55.87868
C         38.51914       91.83124       54.83588
C         39.24041       94.46290       55.46651
C         37.71282       92.89911       54.42563
C         38.07077       94.21863       54.74257
O         37.30076       95.25685       54.35976
H         42.02455       89.32254       57.38896
H         40.86862       91.88130       57.95533
H         40.20017       89.95145       55.65256
H         41.58607       91.09558       55.66492
H         40.94606       93.61445       56.43986
H         38.22383       90.81912       54.59023
H         39.52602       95.47783       55.71461
H         36.80826       92.69992       53.86579
H         36.47942       95.13345       53.86351
N         38.74850       89.22721       58.08612
C         37.44883       88.80259       58.61184
C         37.26924       89.05935       60.11712
O         36.17726       88.81206       60.60948
C         37.19156       87.30928       58.27529
C         38.17095       86.32132       58.94632
C         37.94356       84.89175       58.52782
O         37.04771       84.58882       57.75461
O         38.75816       83.93037       59.00115
H         39.37354       88.52301       57.66804
H         36.66910       89.38816       58.07622
H         37.26622       87.19332       57.17128
H         36.15430       87.03982       58.57426
H         38.06410       86.37983       60.04780
H         39.21470       86.57443       58.67654
N         38.27301       89.55273       60.90504
C         38.15110       89.81345       62.33896
C         38.33939       91.29267       62.68051
O         38.19638       91.63360       63.84686
C         39.23636       89.01942       63.09222
C         39.20892       87.51580       62.79024
C         40.34805       86.77692       63.43813
O         40.49174       85.45875       63.21471
O         41.16197       87.35542       64.13995
H         39.18654       89.72951       60.48819
H         37.14468       89.50901       62.70041
H         39.12785       89.17657       64.18841
H         40.22505       89.41757       62.77737
H         39.31223       87.36198       61.69905
H         38.24345       87.08629       63.12803
N         38.68437       92.22108       61.74131
C         38.91071       93.62249       62.02943
H         39.95221       93.88724       61.74679
H         38.21274       94.23904       61.42483
H         38.76516       93.86713       63.10133
H         38.82159       91.94151       60.76933
Ca        42.79036       84.95043       65.05177
O         44.18531       85.83478       67.59665
H         43.69507       85.16011       68.12538
H         44.64821       86.39144       68.27116
O         42.54584       87.81559       66.81397
H         42.68332       88.45342       66.07271
H         42.91439       88.27646       67.60854
O         43.09623       84.46019       61.86403
H         43.36704       83.76023       62.50829
H         42.21612       84.15880       61.52509

Ca 1.0



