%chk=holoCaM-CaMKII.loop3.water2.frame76.chk
%nprocshared=20
%mem=10GB
%nosave
#b3lyp/svp scf=(tight,noincore,xqc) Test 
#IOP(5/87=12) Density=Current Pop=(MK,readradii) iop(6/33=2) iop(6/42=6)

holoCaM-CaMKII.loop3.water2.frame76 

   0  1 
C         -5.18951       53.64356       92.17587
C         -3.87920       53.06307       92.61846
O         -3.63873       51.89479       92.36090
H         -6.02193       53.08331       92.65191
H         -5.27678       54.71251       92.46432
H         -5.27769       53.56545       91.07266
N         -2.99209       53.82337       93.31704
C         -1.71395       53.34378       93.82170
C         -1.80764       53.30176       95.33005
O         -1.14150       54.05652       96.02460
C         -0.58587       54.23557       93.25700
C          0.78148       53.89225       93.78330
O          1.52660       54.84865       94.36658
O          1.23367       52.76577       93.66902
H         -3.24784       54.79779       93.54053
H         -1.50583       52.30378       93.49564
H         -0.79405       55.30216       93.48683
H         -0.57118       54.11551       92.15323
N         -2.66094       52.40299       95.89644
C         -2.83459       52.24429       97.33342
C         -1.54284       51.75876       97.96134
O         -1.05033       52.41326       98.87015
C         -3.99609       51.27607       97.65825
C         -5.33420       51.79065       97.08963
C         -6.52225       50.94336       97.56487
C         -7.87035       51.45432       97.02106
N         -8.00067       51.26437       95.57396
H         -3.20380       51.79723       95.26298
H         -3.11272       53.22729       97.77712
H         -4.08253       51.21129       98.76578
H         -3.79046       50.25668       97.26335
H         -5.28706       51.78254       95.98385
H         -5.49845       52.83653       97.42981
H         -6.55893       51.00354       98.67478
H         -6.38613       49.87820       97.27813
H         -8.00114       52.52970       97.27705
H         -8.68390       50.88565       97.52273
H         -8.94985       51.58511       95.27482
H         -7.29136       51.82341       95.05062
H         -7.90172       50.25035       95.33691
N         -0.91687       50.63159       97.50303
C          0.34143       50.13954       98.07049
C          1.49333       51.14261       97.96208
O          2.51217       50.92629       98.60386
C          0.74091       48.77308       97.46979
C          1.11878       48.82814       96.01363
O          0.32207       49.20434       95.16877
O          2.34259       48.41903       95.63492
H         -1.36894       50.10255       96.74299
H          0.15040       49.97223       99.15399
H         -0.09941       48.05770       97.59727
H          1.60997       48.37441       98.03841
N          1.38983       52.28066       97.21608
C          2.36470       53.35520       97.24757
C          3.69832       53.04903       96.60911
O          4.54861       53.92735       96.66371
H          0.54581       52.44635       96.66135
H          2.52070       53.65822       98.30570
H          1.94394       54.23555       96.72223
N          3.98765       51.86129       95.99696
C          5.32775       51.59008       95.47844
C          5.70770       52.48535       94.29923
O          6.87657       52.50335       93.94018
C          5.52176       50.08948       95.17665
C          4.85138       49.60385       93.91380
N          5.56241       48.90603       92.99686
O          3.66410       49.81612       93.72258
H          3.27597       51.11875       95.96537
H          6.02331       51.81369       96.31903
H          5.13438       49.51328       96.04535
H          6.61042       49.87628       95.10695
H          6.55862       48.69017       93.14995
H          5.11214       48.55140       92.14265
N          4.78108       53.26332       93.66171
C          5.10726       54.23701       92.63339
C          4.47942       53.94036       91.29103
O          4.61182       54.78478       90.41608
H          3.79122       53.20387       93.93276
H          6.20409       54.32387       92.47753
H          4.73966       55.22533       92.98407
N          3.84683       52.75957       91.01605
C          3.33119       52.43860       89.68893
C          1.85247       52.00777       89.79604
O          1.82738       50.81458       90.52577
C          4.18066       51.31881       89.02227
C          5.65443       51.64663       88.94587
C          6.44691       51.64493       90.10893
C          6.25944       51.93118       87.71024
C          7.80928       51.93888       90.04048
C          7.62482       52.22805       87.64423
C          8.40353       52.23438       88.81105
O          9.72053       52.51765       88.76311
H          3.78875       52.03161       91.74322
H          3.38883       53.32885       89.02483
H          3.78077       51.16884       87.99521
H          4.07998       50.35010       89.55660
H          6.01793       51.40549       91.07254
H          5.67535       51.93148       86.79832
H          8.40296       51.93315       90.94604
H          8.07612       52.45213       86.68612
H         10.17191       52.72727       87.93335
N          1.28467       51.78600       88.45418
C         -0.12621       51.34178       88.40665
C         -0.20613       50.22694       87.38252
O          0.19289       50.42774       86.24357
C         -1.12292       52.49046       88.03057
C         -1.08625       53.62101       89.08873
C         -2.56043       51.92825       87.89136
C         -1.96300       54.82687       88.73282
H          1.44641       52.60465       87.82151
H         -0.44602       50.93635       89.39078
H         -0.82262       52.91193       87.04505
H         -0.04729       53.99865       89.18311
H         -1.40578       53.22037       90.07517
H         -2.61029       51.13546       87.11720
H         -2.91061       51.50225       88.85580
H         -3.27632       52.70470       87.55883
H         -3.03885       54.56181       88.69919
H         -1.84484       55.61124       89.50914
H         -1.65740       55.24886       87.75165
N         -0.76085       49.03122       87.72422
C         -0.90553       47.90596       86.81272
C         -2.37725       47.65787       86.51059
O         -3.23156       48.38404       86.99922
C         -0.21391       46.67305       87.41970
O         -0.82706       46.29734       88.62636
H         -1.13689       48.92071       88.67271
H         -0.41184       48.12454       85.84074
H          0.86887       46.90084       87.56978
H         -0.25013       45.81003       86.72400
H         -0.19235       46.51089       89.35879
N         -2.73559       46.65809       85.65819
C         -4.10647       46.42064       85.21765
C         -5.05471       46.11956       86.36290
O         -6.08202       46.77683       86.45609
C         -4.14111       45.26090       84.21463
H         -1.98858       46.06660       85.26399
H         -4.46996       47.32522       84.67957
H         -3.49190       45.49393       83.34369
H         -3.78329       44.31915       84.68286
H         -5.17735       45.10742       83.84382
N         -4.79919       45.11472       87.24670
C         -5.74524       44.70551       88.28209
C         -6.10189       45.83738       89.23024
O         -7.27572       46.16590       89.33345
C         -5.18911       43.51488       89.07270
H         -3.91335       44.59405       87.14775
H         -6.67848       44.36032       87.78252
H         -4.98901       42.66585       88.38495
H         -4.24120       43.78256       89.58612
H         -5.92769       43.18151       89.83284
N         -5.14726       46.46685       89.97091
C         -5.46542       47.50978       90.95181
C         -6.13874       48.73922       90.34733
O         -6.66154       49.54011       91.11044
C         -4.19587       47.94186       91.71957
C         -3.18278       48.60420       90.77918
C         -1.89484       48.92021       91.45424
O         -0.86439       48.39950       91.05906
O         -1.81692       49.88786       92.37742
H         -4.17429       46.14591       89.86335
H         -6.17401       47.05697       91.68018
H         -3.73686       47.03927       92.17930
H         -4.45929       48.64975       92.53684
H         -3.59309       49.54663       90.35599
H         -2.95798       47.93121       89.92906
N         -6.12920       48.98016       89.00482
C         -6.75618       50.13420       88.39302
H         -7.27819       50.77754       89.13199
H         -5.98381       50.74351       87.87837
H         -7.49995       49.78985       87.64424
H         -5.63509       48.33678       88.37519
Ca         0.13113       50.88491       92.00232
O          1.14682       46.76707       93.07218
H          1.61407       46.02412       92.61371
H          0.73760       46.34789       93.87039
O          2.55506       47.88740       90.54167
H          3.53818       47.99191       90.50678
H          2.24844       48.14976       89.63782

Ca 1.0



