%chk=holoCaM.loop4.water3.frame155.chk
%nprocshared=20
%mem=10GB
%nosave
#b3lyp/svp scf=(tight,noincore,xqc) Test 
#IOP(5/87=12) Density=Current Pop=(MK,readradii) iop(6/33=2) iop(6/42=6)

holoCaM.loop4.water3.frame155 

   -3  1 
C        -13.43448      103.52301        3.47304
C        -13.28545      102.22175        4.20935
O        -12.48464      101.40549        3.78395
H        -12.44289      104.02707        3.43685
H        -13.78330      103.34555        2.43594
H        -14.14275      104.20669        3.98631
N        -13.96748      101.99243        5.36771
C        -13.68088      100.86895        6.25501
C        -14.95375      100.24776        6.84483
O        -15.76415      100.97358        7.40614
C        -12.81185      101.43732        7.38401
C        -12.48155      100.42832        8.43604
O        -11.68801       99.34740        8.22330
O        -12.95323      100.60214        9.54815
H        -14.58464      102.74003        5.72298
H        -13.07801      100.08829        5.74519
H        -13.38162      102.26765        7.86139
H        -11.87601      101.86860        6.98103
N        -15.13216       98.89044        6.83962
C        -16.22677       98.19077        7.52782
C        -15.73822       97.24422        8.63864
O        -16.59814       96.74429        9.34913
C        -17.12078       97.37421        6.53095
C        -16.25908       96.49542        5.58478
C        -18.06190       98.30712        5.75441
C        -17.04963       95.50883        4.72524
H        -14.41957       98.32216        6.36630
H        -16.87390       98.92659        8.05587
H        -17.78603       96.70871        7.12674
H        -15.53791       95.90052        6.18508
H        -15.68909       97.15403        4.90522
H        -18.76066       97.72613        5.11785
H        -18.69333       98.87654        6.47088
H        -17.49420       99.02059        5.12411
H        -17.76836       96.02454        4.05811
H        -16.34169       94.94514        4.07920
H        -17.59009       94.78633        5.37130
N        -14.42333       96.90923        8.83686
C        -14.00091       95.92196        9.84706
C        -12.93966       96.43565       10.82953
O        -12.54350       95.68080       11.70851
C        -13.55864       94.62259        9.14437
C        -12.35674       94.73605        8.24747
O        -11.70262       95.90130        8.08518
O        -11.96684       93.74412        7.65390
H        -13.71062       97.30005        8.21038
H        -14.86850       95.62842       10.47691
H        -14.41293       94.25775        8.53190
H        -13.34461       93.85137        9.91608
N        -12.47448       97.71187       10.78002
C        -11.56276       98.30933       11.74960
C        -10.13054       97.79620       11.75416
O         -9.37536       98.27554       12.58890
H        -12.86987       98.32896       10.07339
H        -11.99574       98.17685       12.76519
H        -11.50557       99.40177       11.55363
N         -9.66881       96.83444       10.90336
C         -8.31602       96.27889       11.02063
C         -7.17333       97.25757       10.72901
O         -6.04371       96.91355       11.05051
C         -8.15703       94.99702       10.17031
C         -8.37444       95.17411        8.69019
O         -8.75739       96.35414        8.17427
O         -8.23308       94.21775        7.94655
H        -10.31815       96.42545       10.22014
H         -8.19540       95.96305       12.08133
H         -8.88899       94.24114       10.52615
H         -7.13642       94.58693       10.33206
N         -7.36024       98.45692       10.10764
C         -6.27720       99.40408        9.85062
C         -5.95425       99.55559        8.37534
O         -5.16433      100.42976        8.04771
H         -8.30267       98.71229        9.78443
H         -5.33247       99.10991       10.35918
H         -6.57927      100.38837       10.26775
N         -6.46960       98.70919        7.43690
C         -6.15433       98.76926        6.01607
C         -7.45916       98.87911        5.17398
O         -8.32983       97.81474        5.44953
C         -5.29540       97.53584        5.62516
C         -3.91024       97.58305        6.30079
C         -3.00791       96.46475        5.84033
N         -3.30294       95.17229        6.10972
O         -1.98426       96.73352        5.22840
H         -7.07039       97.93989        7.74255
H         -5.54983       99.67342        5.78185
H         -5.11861       97.54513        4.52819
H         -5.82902       96.59494        5.88365
H         -4.00688       97.53798        7.40627
H         -3.42855       98.55027        6.03370
H         -4.14971       94.92278        6.63966
H         -2.67156       94.41848        5.79815
N         -7.12047       98.88883        3.74090
C         -8.26257       98.93582        2.80371
C         -8.28555       97.61459        2.04636
O         -7.24901       97.20474        1.54139
C         -8.15171      100.11796        1.78717
C         -9.38174      100.14403        0.85769
C         -8.05211      101.49079        2.47620
H         -6.36851       99.58045        3.52156
H         -9.21943       99.07883        3.35429
H         -7.23814       99.98014        1.16710
H         -9.29948      100.97219        0.12319
H         -9.47256       99.20195        0.28260
H        -10.31179      100.28932        1.45049
H         -8.95357      101.69057        3.08800
H         -7.15497      101.57400        3.12024
H         -7.97092      102.29039        1.70861
N         -9.45069       96.92715        1.87817
C         -9.55983       95.65833        1.15728
C        -10.30830       95.86503       -0.15731
O        -10.71018       96.98526       -0.43635
C        -10.27601       94.66168        2.09828
C        -10.38021       93.25231        1.58177
N         -9.26677       92.53310        1.31123
O        -11.48139       92.74717        1.42244
H        -10.31659       97.33869        2.25235
H         -8.54962       95.27362        0.90134
H        -11.29463       95.05344        2.32288
H         -9.71014       94.61122        3.04809
H         -8.33032       92.93881        1.45127
H         -9.34160       91.56584        0.96401
N        -10.48729       94.84236       -1.04793
C        -11.22330       95.00866       -2.29879
C        -12.69816       95.30811       -2.05457
O        -13.28877       96.02677       -2.84697
C        -11.08991       93.80470       -3.26084
C        -11.84413       92.56848       -2.82509
C        -13.11806       92.31444       -3.36416
C        -11.30133       91.66272       -1.89927
C        -13.84165       91.18744       -2.97385
C        -12.02482       90.52850       -1.51587
C        -13.29717       90.28916       -2.04704
O        -13.98681       89.19746       -1.66073
H        -10.05412       93.93509       -0.84944
H        -10.76223       95.86653       -2.83992
H        -10.02718       93.56227       -3.47920
H        -11.52209       94.14277       -4.22953
H        -13.55959       92.99921       -4.07808
H        -10.31690       91.81926       -1.48241
H        -14.82590       91.01671       -3.39121
H        -11.59536       89.83467       -0.80460
H        -14.87218       89.00371       -2.00088
N        -13.37024       94.74977       -1.00113
C        -14.78096       95.03013       -0.71432
C        -15.00054       96.47189       -0.25432
O        -16.14493       96.85833       -0.05764
C        -15.31793       94.09371        0.39304
C        -15.26032       92.61215       -0.00209
C        -15.84416       91.75362        1.08216
O        -16.81613       91.05155        0.85347
O        -15.29478       91.74984        2.31208
H        -12.85797       94.10135       -0.38737
H        -15.37280       94.84779       -1.63891
H        -16.38386       94.34748        0.59117
H        -14.74015       94.25769        1.33070
H        -14.21240       92.29316       -0.16988
H        -15.83223       92.46248       -0.94431
N        -13.95191       97.31087       -0.03433
C        -14.05132       98.67090        0.46506
C        -13.55289       99.67479       -0.57043
O        -13.56614      100.86205       -0.27754
C        -13.18524       98.77370        1.73596
C        -13.61371       97.77523        2.82515
C        -12.69171       97.75894        4.01625
O        -11.72425       98.49935        4.07925
O        -12.91414       96.88224        5.01300
H        -13.00416       96.96925       -0.18628
H        -15.10492       98.92998        0.70941
H        -13.24195       99.80218        2.13763
H        -12.13192       98.56342        1.45248
H        -13.61110       96.74485        2.41274
H        -14.64223       98.02976        3.14915
N        -13.10399       99.27959       -1.79943
C        -12.61607      100.18666       -2.81542
H        -11.56992       99.91514       -3.07131
H        -13.24245      100.08146       -3.72638
H        -12.63852      101.24534       -2.48718
H        -13.09785       98.28825       -2.05437
Ca       -10.13925       98.52772        6.73055
O         -9.75801       95.41565        5.43912
H        -10.44881       94.93310        5.95362
H         -9.00528       94.77564        5.37739
O         -9.72071      101.07654        5.41153
H         -9.98976      102.01499        5.56814
H        -10.56458      100.60938        5.19526
O         -9.20683      100.75619        8.57407
H         -9.79952      101.46132        8.21596
H         -8.46882      100.70026        7.91819

Ca 1.0



