%chk=holoCaM.loop1.water2.frame82.chk
%nprocshared=20
%mem=10GB
%nosave
#b3lyp/svp scf=(tight,noincore,xqc) Test 
#IOP(5/87=12) Density=Current Pop=(MK,readradii) iop(6/33=2) iop(6/42=6)

holoCaM.loop1.water2.frame82 

   0  1 
C         -9.52600       17.45015       -2.89840
C         -9.99628       18.44031       -3.91652
O        -11.18478       18.72024       -3.97653
H         -8.77509       17.92316       -2.23224
H        -10.37677       17.08190       -2.28721
H         -9.06173       16.58761       -3.42181
N         -9.09931       19.01355       -4.76347
C         -9.48618       19.94581       -5.81279
C        -10.39113       19.24304       -6.82144
O         -9.91062       18.42447       -7.59313
C         -8.21094       20.52104       -6.46486
C         -8.49574       21.31441       -7.69238
O         -7.96219       21.00087       -8.74180
O         -9.35669       22.34280       -7.65496
H         -8.10232       18.77062       -4.64749
H        -10.04292       20.79195       -5.34864
H         -7.52414       19.69208       -6.74804
H         -7.68477       21.16219       -5.72439
N        -11.73806       19.47503       -6.80960
C        -12.68532       18.73534       -7.63534
C        -12.82455       19.27619       -9.06091
O        -13.55870       18.66321       -9.82345
C        -14.07012       18.65697       -6.93482
C        -14.94205       19.92393       -7.05206
C        -16.27738       19.72996       -6.31780
C        -17.27434       20.84865       -6.65190
N        -18.54510       20.63934       -5.95679
H        -12.10842       20.05147       -6.04770
H        -12.32550       17.68269       -7.67296
H        -13.91927       18.38284       -5.86610
H        -14.64537       17.83216       -7.40958
H        -15.15521       20.09589       -8.12889
H        -14.42745       20.81822       -6.65047
H        -16.09113       19.69096       -5.22154
H        -16.73588       18.76800       -6.63471
H        -17.46105       20.84586       -7.74997
H        -16.85441       21.83893       -6.36985
H        -18.94318       19.70305       -6.20183
H        -18.40200       20.70083       -4.92280
H        -19.22430       21.37782       -6.25120
N        -12.19204       20.41249       -9.49230
C        -12.37598       20.97136      -10.83881
C        -11.10813       20.90634      -11.67272
O        -11.15472       21.31833      -12.82467
C        -12.77318       22.46044      -10.75425
C        -14.08240       22.71662      -10.07923
O        -14.11598       23.43507       -8.94883
O        -15.12373       22.31056      -10.56721
H        -11.55864       20.91102       -8.84945
H        -13.15787       20.41158      -11.39580
H        -12.85464       22.90036      -11.77126
H        -11.96141       23.00748      -10.22774
N         -9.93152       20.44616      -11.17067
C         -8.69015       20.49100      -11.91958
C         -8.31439       21.91506      -12.26858
O         -8.01963       22.18868      -13.42304
H         -9.88641       20.08041      -10.21020
H         -8.76198       19.86295      -12.83437
H         -7.88256       20.07382      -11.28129
N         -8.31067       22.87588      -11.30217
C         -7.87769       24.25101      -11.50698
C         -6.70531       24.59629      -10.58375
O         -6.31725       25.75516      -10.53880
C         -9.08218       25.21827      -11.38548
C         -9.77212       25.30990      -10.05335
O        -10.74715       26.03383       -9.93848
O         -9.34132       24.62341       -8.98678
H         -8.63161       22.62079      -10.36104
H         -7.51028       24.39303      -12.54691
H         -9.84167       24.90109      -12.13349
H         -8.74605       26.24207      -11.65790
N         -6.03539       23.62589       -9.88331
C         -4.85277       23.88758       -9.07539
C         -5.13389       24.54565       -7.74058
O         -4.16954       24.83822       -7.04503
H         -6.29722       22.63787       -9.99620
H         -4.13921       24.50026       -9.66982
H         -4.35043       22.92313       -8.84686
N         -6.39729       24.82547       -7.30883
C         -6.67909       25.52914       -6.06034
C         -7.83161       24.90307       -5.28054
O         -8.70505       24.27697       -5.86445
C         -6.97215       27.01826       -6.35362
C         -5.71670       27.77257       -6.82091
O         -8.01076       27.15358       -7.29211
H         -7.18929       24.59884       -7.91949
H         -5.78938       25.49503       -5.39193
H         -7.29046       27.51183       -5.41024
H         -7.65495       26.90803       -8.18716
H         -5.96082       28.84304       -6.98291
H         -4.92578       27.70833       -6.04260
H         -5.31878       27.35470       -7.76927
N         -7.89261       25.07381       -3.92923
C         -8.93672       24.54713       -3.05224
C         -9.62900       25.72367       -2.36720
O         -8.95626       26.58309       -1.81185
C         -8.30616       23.54060       -2.03720
C         -7.74553       22.31607       -2.81738
C         -9.33059       23.07745       -0.98150
C         -7.06965       21.25532       -1.94643
H         -7.13263       25.60763       -3.47708
H         -9.70320       23.98122       -3.62963
H         -7.48090       24.05328       -1.49599
H         -6.99133       22.66577       -3.55344
H         -8.57091       21.82291       -3.37835
H         -8.85103       22.44357       -0.20926
H         -9.77226       23.93802       -0.43946
H        -10.13338       22.48822       -1.45579
H         -7.78983       20.78356       -1.24704
H         -6.67279       20.44747       -2.59772
H         -6.22971       21.70188       -1.37542
N        -10.98961       25.79465       -2.34587
C        -11.77662       26.87562       -1.76255
C        -12.46883       26.38460       -0.49791
O        -12.23894       25.25436       -0.09124
C        -12.83429       27.36317       -2.79930
C        -12.19023       27.88291       -4.09612
O        -13.78475       26.34823       -3.04839
H        -11.51675       25.00979       -2.73694
H        -11.12682       27.73314       -1.48103
H        -13.39210       28.22686       -2.38398
H        -13.62551       25.94270       -3.93764
H        -12.98295       28.23999       -4.78944
H        -11.50718       28.72894       -3.87529
H        -11.61978       27.07560       -4.59966
N        -13.35511       27.17750        0.16686
C        -14.14518       26.72560        1.31395
C        -15.00714       25.52686        0.93873
O        -15.13668       24.60889        1.73477
C        -15.07049       27.84888        1.84455
C        -14.28331       29.05432        2.36863
O        -15.95702       28.26440        0.83531
H        -13.51136       28.13106       -0.18993
H        -13.46481       26.43306        2.14591
H        -15.64361       27.42031        2.70217
H        -16.77336       28.60406        1.28681
H        -13.70078       29.54359        1.56163
H        -14.98869       29.80317        2.78656
H        -13.58815       28.73729        3.17424
N        -15.61698       25.47945       -0.27854
C        -16.45641       24.37404       -0.73553
C        -15.69025       23.05619       -0.73651
O        -16.26560       22.02533       -0.41728
C        -16.96710       24.61779       -2.18089
C        -17.67394       25.96326       -2.44777
C        -18.89827       26.22651       -1.56454
C        -19.53777       27.57143       -1.94758
N        -20.71554       27.85397       -1.12993
H        -15.45044       26.26768       -0.91508
H        -17.34120       24.28690       -0.06737
H        -17.66347       23.79161       -2.44755
H        -16.10474       24.57186       -2.88181
H        -17.99312       25.96252       -3.51310
H        -16.96120       26.80453       -2.33140
H        -18.59185       26.26522       -0.49696
H        -19.63764       25.40823       -1.70139
H        -19.83595       27.54868       -3.01969
H        -18.79443       28.38935       -1.81045
H        -21.12268       28.77058       -1.42678
H        -21.43354       27.10582       -1.26463
H        -20.44734       27.91368       -0.12097
N        -14.37877       23.03209       -1.10214
C        -13.57224       21.82379       -1.26044
C        -12.66217       21.57848       -0.06319
O        -11.95379       20.58096       -0.07665
C        -12.68827       22.01482       -2.51146
C        -13.50074       22.23050       -3.78757
C        -12.67592       22.88753       -4.85457
O        -12.26942       24.02482       -4.71166
O        -12.49455       22.29254       -6.02785
H        -13.92636       23.93165       -1.31685
H        -14.22458       20.92916       -1.37132
H        -11.98157       21.17003       -2.66862
H        -12.09321       22.92555       -2.31940
H        -14.34988       22.92153       -3.61070
H        -13.91631       21.25588       -4.12446
N        -12.61459       22.43232        0.99923
C        -11.74506       22.24688        2.14258
H        -11.05373       23.11286        2.21779
H        -12.35954       22.19865        3.06564
H        -11.13890       21.32011        2.07213
H        -13.20689       23.26740        1.01214
Ca       -12.22336       23.61990       -7.77495
O        -10.97772       27.02629       -7.21328
H        -10.39700       27.62947       -6.68684
H        -11.52238       27.63846       -7.76837
O        -13.79224       26.05315       -6.85787
H        -13.90528       26.95132       -7.25831
H        -14.56894       25.53551       -7.18678

Ca 1.0



