%chk=holoCaM.loop1.water1.frame392.chk
%nprocshared=20
%mem=10GB
%nosave
#b3lyp/svp scf=(tight,noincore,xqc) Test 
#IOP(5/87=12) Density=Current Pop=(MK,readradii) iop(6/33=2) iop(6/42=6)

holoCaM.loop1.water1.frame392 

   0  1 
C         95.51819       60.85800      111.70103
C         96.66262       61.70066      112.18467
O         97.39549       61.27558      113.06650
H         94.56020       61.39941      111.84100
H         95.65634       60.64360      110.61862
H         95.47553       59.89115      112.24570
N         96.90006       62.90674      111.60185
C         98.06327       63.72867      111.91754
C         97.95629       64.29274      113.33778
O         97.01883       65.03239      113.60447
C         98.18039       64.85197      110.85816
C         99.54906       65.46547      110.78170
O        100.16981       65.43380      109.73253
O        100.10469       66.05179      111.84700
H         96.26663       63.20192      110.84156
H         98.95333       63.07487      111.80368
H         97.40559       65.62890      111.03569
H         97.98750       64.41165      109.85423
N         98.85808       63.95915      114.30998
C         98.74453       64.42451      115.69928
C         98.86385       65.93740      115.86481
O         98.39759       66.44819      116.87388
C         99.78317       63.74397      116.63408
C        101.25432       64.01747      116.24903
C        102.22956       63.45074      117.29221
C        103.70781       63.53302      116.85986
N        104.14608       64.89843      116.56680
H         99.60967       63.30216      114.06192
H         97.73682       64.12532      116.06602
H         99.61409       62.64505      116.63395
H         99.60764       64.11005      117.67073
H        101.42806       65.10876      116.17645
H        101.46480       63.55459      115.26779
H        102.00002       62.37767      117.46838
H        102.08938       63.99871      118.25018
H        103.87080       62.89607      115.96265
H        104.33102       63.12254      117.68499
H        103.94902       65.53252      117.37407
H        105.17459       64.89269      116.37769
H        103.67138       65.25008      115.70838
N         99.59806       66.68520      114.99701
C         99.91008       68.10102      115.19334
C         99.50207       68.97461      113.99812
O         99.75424       70.17110      114.04283
C        101.41637       68.25559      115.52213
C        102.30957       67.79708      114.40767
O        102.98700       68.61263      113.80490
O        102.34741       66.50224      114.03703
H        100.02205       66.20075      114.20268
H         99.36680       68.49837      116.07864
H        101.67134       67.68705      116.44212
H        101.61520       69.33069      115.72932
N         98.83287       68.46838      112.92102
C         98.34905       69.27218      111.80624
C         99.39471       69.87036      110.87151
O         98.96822       70.55115      109.94903
H         98.54983       67.48156      112.92552
H         97.71830       70.09368      112.21220
H         97.69428       68.63279      111.17497
N        100.74601       69.70699      111.01361
C        101.69372       70.39421      110.12237
C        101.63315       69.94000      108.66793
O        102.06669       70.70494      107.81637
C        103.14119       70.36332      110.66228
C        103.73520       68.99549      110.84291
O        103.08360       67.89101      110.44939
O        104.80620       68.88157      111.41567
H        101.10563       69.15566      111.80461
H        101.40439       71.46971      110.13068
H        103.12169       70.84294      111.66461
H        103.81086       70.96325      110.00856
N        101.14795       68.72011      108.29880
C        101.03015       68.29798      106.90894
C        101.95435       67.15510      106.53829
O        101.80363       66.63719      105.44395
H        100.84350       68.05517      109.02620
H        101.23362       69.12687      106.19832
H         99.97812       67.97566      106.74954
N        102.93044       66.71020      107.38382
C        103.77557       65.55392      107.09960
C        103.47713       64.46940      108.10885
O        102.79423       64.71783      109.08750
C        105.28344       65.91069      107.11411
C        105.64982       66.95112      106.04915
O        105.70412       66.32796      108.39141
H        103.05906       67.17586      108.27935
H        103.52131       65.14075      106.10040
H        105.85832       64.99152      106.86465
H        105.34332       67.23692      108.55697
H        105.12712       67.91209      106.23921
H        106.74595       67.13243      106.06566
H        105.36908       66.57990      105.04088
N        103.91365       63.20175      107.87395
C        103.56404       62.07986      108.72764
C        104.84981       61.41722      109.19356
O        105.56437       60.84093      108.38849
C        102.60505       61.14800      107.92249
C        101.26976       61.86663      107.55806
C        102.31771       59.81702      108.61631
C        100.36717       62.22641      108.75034
H        104.45237       63.01037      107.01758
H        103.02489       62.42121      109.63342
H        103.11409       60.89361      106.96627
H        100.68176       61.21158      106.88004
H        101.49179       62.79775      106.99494
H        101.81993       59.97047      109.58807
H        101.65773       59.19091      107.97856
H        103.26250       59.26088      108.76779
H        100.03397       61.32075      109.29631
H        100.87297       62.90545      109.46105
H         99.45811       62.74556      108.38069
N        105.21552       61.50782      110.50747
C        106.41593       60.88422      111.06960
C        106.27260       59.37135      111.05372
O        105.25941       58.88042      110.58425
C        106.64941       61.38723      112.52307
C        106.93015       62.89955      112.54301
O        105.53273       61.07660      113.31631
H        104.61064       62.05615      111.13215
H        107.30587       61.17173      110.46713
H        107.54453       60.88296      112.94752
H        105.69737       61.44199      114.22469
H        107.12864       63.23618      113.58276
H        107.82744       63.12917      111.93013
H        106.07161       63.47910      112.14789
N        107.24136       58.55327      111.54798
C        107.07184       57.10316      111.60356
C        105.93944       56.75712      112.57205
O        105.01007       56.06442      112.18424
C        108.38990       56.40441      112.01106
C        108.27715       54.88357      111.83654
O        109.42784       56.86715      111.18417
H        108.11879       58.97144      111.89460
H        106.82889       56.74117      110.57767
H        108.61659       56.65401      113.07450
H        110.27400       56.75748      111.69232
H        109.23381       54.39649      112.11842
H        107.46614       54.46412      112.46651
H        108.06525       54.63917      110.77150
N        105.95122       57.25246      113.84804
C        104.90795       57.00697      114.85535
C        103.52615       57.56853      114.49190
O        102.60309       57.35992      115.26768
C        105.35924       57.57080      116.22680
C        106.54554       56.76669      116.78960
C        107.03251       57.32762      118.13368
C        108.18225       56.50125      118.74183
N        107.75253       55.16147      119.15301
H        106.75978       57.83270      114.11809
H        104.77635       55.90853      114.97234
H        104.53137       57.48089      116.96480
H        105.61345       58.64965      116.12389
H        107.39768       56.77411      116.07757
H        106.20079       55.72014      116.91778
H        106.19558       57.37636      118.86380
H        107.40239       58.36194      117.95990
H        108.55653       57.03901      119.64071
H        109.02292       56.42463      118.01681
H        107.45532       54.58919      118.33228
H        108.55510       54.67291      119.61156
H        106.96799       55.23192      119.84143
N        103.28320       58.22061      113.32210
C        101.96104       58.63684      112.87016
C        101.49828       57.67758      111.78323
O        100.42716       57.10291      111.91980
C        102.01693       60.09017      112.35659
C        102.23290       61.10217      113.48827
C        102.39402       62.49300      112.93696
O        103.39832       63.14024      113.18435
O        101.43117       63.03869      112.17376
H        104.05368       58.37573      112.66881
H        101.20497       58.58279      113.68569
H        101.05443       60.34344      111.85830
H        102.83849       60.18036      111.61352
H        103.13263       60.83350      114.07832
H        101.35482       61.07828      114.16910
N        102.26920       57.42166      110.69318
C        101.88338       56.49408      109.65333
H        100.95043       56.83982      109.16206
H        102.68724       56.43510      108.88694
H        101.73297       55.48130      110.08263
H        103.17482       57.88383      110.60197
Ca       102.90451       66.22378      111.90332
O        105.63508       65.95263      113.28403
H        106.60796       65.78248      113.22573
H        105.45294       66.56091      112.52586

Ca 1.0



