%chk=holoCaM.loop1.water2.frame438.chk
%nprocshared=20
%mem=10GB
%nosave
#b3lyp/svp scf=(tight,noincore,xqc) Test 
#IOP(5/87=12) Density=Current Pop=(MK,readradii) iop(6/33=2) iop(6/42=6)

holoCaM.loop1.water2.frame438 

   0  1 
C         -0.35224      106.24835       57.49753
C         -0.46696      107.72398       57.26756
O         -0.84051      108.44961       58.17859
H         -1.02646      105.71427       56.79562
H          0.69403      105.92330       57.31608
H         -0.63507      105.98711       58.53895
N         -0.14109      108.24189       56.05313
C         -0.21857      109.66403       55.75567
C         -1.66917      110.14622       55.82056
O         -2.50928      109.68196       55.06368
C          0.42627      109.93607       54.39369
C          0.36090      111.38007       54.04039
O          0.91342      112.31908       54.83272
O         -0.21381      111.70417       53.02227
H          0.20240      107.59439       55.32576
H          0.39556      110.20601       56.50986
H         -0.08877      109.33899       53.60869
H          1.49455      109.62855       54.42153
N         -2.01767      111.05194       56.77187
C         -3.38197      111.49028       57.07191
C         -3.96310      112.44090       56.02353
O         -5.12942      112.30655       55.68413
C         -3.35547      112.16147       58.46703
C         -4.72505      112.41889       59.10776
C         -4.59761      112.93488       60.56110
C         -4.01227      111.88652       61.53626
N         -3.95919      112.40039       62.90468
H         -1.26366      111.36599       57.40091
H         -4.02779      110.59190       57.18904
H         -2.81293      113.12293       58.42037
H         -2.80457      111.45974       59.12321
H         -5.32623      111.48478       59.11412
H         -5.26030      113.17919       58.49928
H         -5.61638      113.19698       60.91868
H         -3.97687      113.85791       60.57886
H         -2.98555      111.59325       61.24554
H         -4.64546      110.97238       61.51458
H         -3.56273      111.66140       63.53058
H         -3.34067      113.24276       62.94949
H         -4.91977      112.64399       63.23733
N         -3.21219      113.46596       55.52757
C         -3.72639      114.57524       54.70399
C         -3.19502      114.61439       53.26815
O         -3.50379      115.55964       52.55480
C         -3.46092      115.91525       55.43459
C         -2.01278      116.20454       55.75644
O         -1.73253      117.20043       56.40265
O         -1.03601      115.34448       55.40896
H         -2.22465      113.46745       55.80404
H         -4.83050      114.49357       54.59707
H         -4.01140      115.88169       56.39979
H         -3.87809      116.75749       54.84029
N         -2.48483      113.58588       52.74220
C         -2.08636      113.50387       51.34224
C         -0.99067      114.46266       50.92248
O         -1.13284      115.09990       49.88841
H         -2.30867      112.76583       53.33460
H         -2.97525      113.60413       50.68039
H         -1.67808      112.48796       51.16329
N          0.17275      114.54043       51.62704
C          1.38018      115.21002       51.14352
C          2.57395      114.24462       51.09020
O          3.65438      114.68131       50.71876
C          1.70022      116.45439       51.99595
C          1.78425      116.19110       53.46602
O          1.01034      116.90391       54.30389
O          2.55897      115.36230       53.91061
H          0.22216      114.06471       52.53823
H          1.23776      115.58149       50.10516
H          0.90536      117.21356       51.83268
H          2.65977      116.89826       51.65244
N          2.46249      112.92428       51.42814
C          3.56994      111.98402       51.41080
C          4.64683      112.39296       52.38308
O          5.77961      112.56992       51.96322
H          1.55556      112.53961       51.69818
H          3.97768      111.90683       50.37987
H          3.19716      110.97787       51.70764
N          4.35630      112.53651       53.70720
C          5.31224      112.96394       54.73380
C          4.68917      112.74916       56.10413
O          3.56348      113.17505       56.33057
C          5.73747      114.45547       54.57939
C          6.73139      114.89180       55.67098
O          6.30008      114.71233       53.31936
H          3.39424      112.30078       53.99611
H          6.22472      112.33089       54.66231
H          4.84448      115.09910       54.68225
H          7.16162      114.21949       53.26873
H          6.28534      114.79796       56.68285
H          7.65188      114.27025       55.62738
H          7.01180      115.95498       55.51800
N          5.39446      112.11500       57.07899
C          4.84227      111.76360       58.37713
C          5.40194      112.68794       59.44328
O          6.61221      112.81993       59.56472
C          5.14779      110.26652       58.67449
C          4.64639      109.32059       57.54908
C          4.59217      109.82368       60.03768
C          3.13953      109.37444       57.27611
H          6.37740      111.86017       56.89400
H          3.73854      111.88533       58.37768
H          6.25303      110.14209       58.72445
H          4.92070      108.27579       57.81240
H          5.17316      109.56627       56.60229
H          4.85835      108.76232       60.22380
H          5.04005      110.42163       60.85487
H          3.49097      109.93107       60.08403
H          2.55158      109.09849       58.17455
H          2.83565      110.38314       56.93039
H          2.89047      108.65392       56.46939
N          4.54353      113.31089       60.29959
C          4.94653      114.13386       61.42847
C          4.79920      113.30699       62.69117
O          4.42285      112.14630       62.60580
C          4.08107      115.42702       61.50453
C          4.19033      116.29270       60.23952
O          2.73682      115.12166       61.79491
H          3.54586      113.09085       60.22735
H          6.01670      114.42211       61.34029
H          4.45053      116.05838       62.33965
H          2.26955      114.91836       60.94620
H          3.82309      115.73558       59.35270
H          3.57113      117.20883       60.35805
H          5.24353      116.59529       60.06724
N          5.10467      113.82340       63.90697
C          4.94785      113.05874       65.13911
C          3.48833      112.71202       65.39143
O          3.21762      111.57632       65.75248
C          5.57516      113.79109       66.34448
C          7.09613      113.90065       66.17038
O          5.02885      115.07470       66.50520
H          5.46553      114.78829       63.95403
H          5.50872      112.09934       65.05189
H          5.41461      113.18343       67.26707
H          4.19556      114.97034       67.03349
H          7.54996      114.38455       67.05902
H          7.54115      112.88658       66.06256
H          7.36074      114.49395       65.27041
N          2.49104      113.63146       65.23044
C          1.08699      113.30926       65.49651
C          0.49524      112.32218       64.46833
O         -0.63450      111.89479       64.66112
C          0.27164      114.62215       65.62019
C         -1.03454      114.47151       66.42776
C         -1.67814      115.85005       66.67743
C         -2.90250      115.81129       67.61242
N         -2.54562      115.45915       68.99086
H          2.74618      114.59309       64.95840
H          1.06588      112.83718       66.50417
H          0.09801      115.07852       64.62094
H          0.89375      115.32813       66.21466
H         -0.76826      114.01599       67.40347
H         -1.75876      113.80792       65.91044
H         -1.99315      116.26516       65.69585
H         -0.93371      116.54685       67.12249
H         -3.66632      115.10492       67.22108
H         -3.35217      116.82949       67.62433
H         -2.17539      114.48528       69.05062
H         -1.83662      116.13278       69.36343
H         -3.40097      115.51817       69.58968
N          1.20957      111.88758       63.37943
C          0.74132      110.88624       62.41651
C          1.56721      109.59803       62.49087
O          1.19944      108.63789       61.82785
C          0.86686      111.42448       60.96995
C          0.13342      112.74516       60.71996
C          0.39609      113.25028       59.32200
O          1.64722      113.49057       58.89822
O         -0.52581      113.47208       58.56313
H          2.14501      112.26790       63.22127
H         -0.31552      110.61699       62.63375
H          0.49631      110.66115       60.24867
H          1.94551      111.58660       60.76912
H          0.49109      113.50863       61.43766
H         -0.95425      112.60386       60.87770
N          2.70783      109.50181       63.23388
C          3.51265      108.30052       63.28222
H          4.41386      108.47668       63.91006
H          2.92881      107.46618       63.72131
H          3.84933      108.02337       62.26278
H          3.05018      110.30354       63.76619
Ca         0.94172      115.25159       56.49620
O          3.44864      116.65640       56.91664
H          2.83173      117.34670       57.26869
H          3.96802      117.11956       56.21357
O          0.32539      117.04180       58.83924
H          0.79943      116.48992       59.51008
H         -0.49549      116.52727       58.63605

Ca 1.0



