%chk=holoCaM-CaMKII.loop1.water2.frame337.chk
%nprocshared=20
%mem=10GB
%nosave
#b3lyp/svp scf=(tight,noincore,xqc) Test 
#IOP(5/87=12) Density=Current Pop=(MK,readradii) iop(6/33=2) iop(6/42=6)

holoCaM-CaMKII.loop1.water2.frame337 

   0  1 
C         24.00624       68.73550       60.07981
C         24.08714       70.21857       59.92787
O         23.16984       70.89673       60.36801
H         23.10136       68.36193       59.55978
H         24.90578       68.23788       59.66382
H         23.93506       68.49227       61.16202
N         25.17421       70.80729       59.35205
C         25.31512       72.25083       59.32651
C         24.26066       72.88527       58.43316
O         24.32269       72.73119       57.22089
C         26.72465       72.66473       58.86979
C         27.01159       74.08721       59.22554
O         26.13074       74.80189       59.95296
O         28.10501       74.56113       58.96857
H         25.94836       70.21576       59.01274
H         25.19502       72.57844       60.38546
H         26.85894       72.48168       57.78068
H         27.48230       72.06330       59.41608
N         23.22965       73.57603       58.98427
C         22.15475       74.16726       58.20310
C         22.57232       75.47355       57.54974
O         22.25559       75.65404       56.38163
C         20.88953       74.35700       59.06746
C         20.25575       73.02777       59.55655
C         19.86091       72.09134       58.39061
C         18.94873       70.92212       58.79524
N         19.58361       70.00104       59.73697
H         23.15976       73.60279       60.01050
H         21.85721       73.48212       57.38421
H         20.12014       74.87596       58.45420
H         21.11767       75.00531       59.94208
H         19.33648       73.30038       60.11863
H         20.93921       72.49778       60.25305
H         20.76927       71.67573       57.90407
H         19.29699       72.68491       57.63896
H         18.68338       70.36050       57.87065
H         18.00662       71.31919       59.23242
H         19.79195       70.48359       60.63935
H         18.92186       69.21376       59.92885
H         20.46099       69.60907       59.32456
N         23.27152       76.43517       58.22390
C         23.60664       77.72679       57.61745
C         24.94307       77.72761       56.87161
O         25.28066       78.75398       56.29783
C         23.43447       78.88148       58.63162
C         24.40740       78.90048       59.77525
O         25.28651       78.06388       59.87119
O         24.31418       79.87255       60.70213
H         23.58129       76.23869       59.18716
H         22.84947       77.95081       56.83274
H         22.40485       78.82929       59.04939
H         23.53316       79.84936       58.09443
N         25.69891       76.59701       56.73635
C         26.82517       76.50237       55.81347
C         28.09875       77.23173       56.20093
O         29.02949       77.18121       55.40814
H         25.38728       75.72211       57.18051
H         26.48947       76.85924       54.81455
H         27.09891       75.43077       55.70285
N         28.25308       77.90507       57.37660
C         29.50198       78.59253       57.73796
C         30.69645       77.64501       57.97919
O         31.76817       78.15324       58.27444
C         29.25789       79.56894       58.92568
C         28.78185       78.91147       60.18198
O         28.77533       77.58088       60.25136
O         28.33127       79.57516       61.10139
H         27.44724       77.96353       58.01549
H         29.78303       79.25578       56.89065
H         28.45322       80.26412       58.60005
H         30.16284       80.17267       59.14746
N         30.61411       76.28266       57.84231
C         31.77082       75.39407       57.93744
C         31.99035       74.81646       59.32157
O         32.93588       74.05397       59.48151
H         29.73116       75.84431       57.56110
H         32.68959       75.92022       57.59777
H         31.62111       74.54523       57.23520
N         31.18891       75.13938       60.37173
C         31.38189       74.66501       61.73705
C         30.10940       74.00856       62.24295
O         29.05091       74.61675       62.14776
C         31.78795       75.84623       62.65131
C         33.15997       76.42207       62.26242
O         30.80831       76.85523       62.66621
H         30.41227       75.79182       60.21302
H         32.21253       73.92538       61.79755
H         31.89097       75.46153       63.68962
H         30.89705       77.38835       61.83405
H         33.14376       76.82907       61.22873
H         33.43590       77.23999       62.96048
H         33.93786       75.63106       62.32038
N         30.13916       72.78638       62.84397
C         28.95166       72.15424       63.41010
C         28.86854       72.52568       64.87822
O         29.84325       72.32616       65.59353
C         28.98643       70.60258       63.24957
C         29.29908       70.18173       61.79189
C         27.63819       70.00491       63.71590
C         29.44760       68.66594       61.62109
H         31.05548       72.33777       63.00716
H         28.04204       72.51625       62.87682
H         29.80196       70.20279       63.89354
H         30.27089       70.62664       61.49061
H         28.51443       70.55731       61.10169
H         27.64667       68.89809       63.69612
H         27.41799       70.28858       64.76181
H         26.80770       70.36824       63.07080
H         28.49156       68.13701       61.80720
H         29.75534       68.43797       60.57973
H         30.22460       68.27402       62.31271
N         27.71387       73.01541       65.40939
C         27.56179       73.32283       66.82832
C         26.81302       72.20014       67.51290
O         26.35066       71.28601       66.84141
C         26.79880       74.66453       67.03469
C         27.46551       75.85569       66.34106
O         25.45843       74.55306       66.62299
H         26.88459       73.06873       64.80158
H         28.56106       73.39659       67.31071
H         26.78064       74.89740       68.12089
H         25.43443       74.58958       65.63558
H         27.48747       75.69128       65.24480
H         26.87771       76.77816       66.54285
H         28.49965       75.99739       66.71342
N         26.64310       72.20011       68.86229
C         25.77355       71.23270       69.52177
C         24.32554       71.48373       69.11035
O         23.52983       70.55657       69.14121
C         25.90378       71.29445       71.06133
C         27.31385       70.89201       71.51784
O         25.59839       72.58892       71.51493
H         27.10314       72.93591       69.42126
H         26.07072       70.20697       69.20220
H         25.18074       70.56458       71.49507
H         25.49385       72.53218       72.50046
H         27.37136       70.90916       72.62681
H         27.54639       69.86053       71.17627
H         28.08209       71.58479       71.11611
N         23.91285       72.73911       68.75440
C         22.53935       73.05912       68.37006
C         22.17318       72.47147       67.01183
O         20.99604       72.47168       66.67709
C         22.32352       74.58628       68.25723
C         22.73399       75.38258       69.50595
C         22.50902       76.88044       69.27562
C         23.08725       77.70499       70.43101
N         22.88211       79.13433       70.20446
H         24.60034       73.49871       68.79630
H         21.86810       72.65923       69.16304
H         21.24846       74.78023       68.04347
H         22.92123       74.96420       67.39815
H         23.81363       75.23963       69.70790
H         22.16119       75.03951       70.39437
H         21.42031       77.07802       69.16447
H         23.02498       77.19047       68.33949
H         24.18019       77.50427       70.50912
H         22.60536       77.40647       71.38757
H         23.33747       79.42683       69.30897
H         21.85895       79.34659       70.16636
H         23.31306       79.66967       70.99217
N         23.12978       72.01049       66.15417
C         22.85405       71.47977       64.82523
C         23.10976       69.98151       64.78135
O         22.77473       69.37375       63.77453
C         23.72974       72.21029       63.77737
C         23.39510       73.70750       63.67702
C         24.35215       74.43539       62.77154
O         25.67205       74.44061       63.03731
O         23.93416       75.06237       61.81323
H         24.11319       72.04293       66.44145
H         21.78018       71.61588       64.57008
H         23.59377       71.75495       62.77462
H         24.79615       72.07983       64.06784
H         23.45185       74.17816       64.67653
H         22.35505       73.82516       63.30194
N         23.67100       69.30995       65.83182
C         23.84572       67.87416       65.86298
H         23.41272       67.37454       64.97224
H         24.92691       67.63354       65.92468
H         23.33678       67.47366       66.76568
H         23.99671       69.81610       66.66386
Ca        27.10526       76.42809       61.08904
O         25.21532       77.91824       63.50022
H         24.88434       78.05027       64.42384
H         24.55129       78.38070       62.93082
O         28.16758       77.85445       63.67285
H         28.34307       76.90647       63.45040
H         28.69315       78.01561       64.49561

Ca 1.0



