%chk=holoCaM.loop2.water2.frame343.chk
%nprocshared=20
%mem=10GB
%nosave
#b3lyp/svp scf=(tight,noincore,xqc) Test 
#IOP(5/87=12) Density=Current Pop=(MK,readradii) iop(6/33=2) iop(6/42=6)

holoCaM.loop2.water2.frame343 

   -2  1 
C         -8.37378       18.24611      111.02699
C         -9.81079       18.37288      110.60040
O        -10.15410       17.93717      109.51215
H         -7.78242       19.09624      110.63247
H         -8.26691       18.22155      112.13377
H         -7.94725       17.30411      110.62451
N        -10.72806       18.92278      111.42998
C        -12.13472       18.96695      111.09271
C        -12.48701       19.95054      109.96459
O        -12.00551       21.07431      109.94070
C        -12.91314       19.26889      112.36576
C        -14.36470       19.06380      112.15977
O        -15.22328       19.79020      112.89144
O        -14.77056       18.20714      111.38753
H        -10.43473       19.24296      112.36847
H        -12.44064       17.93991      110.79638
H        -12.70742       20.29136      112.73588
H        -12.58389       18.57106      113.16616
N        -13.38755       19.56675      109.01538
C        -13.94458       20.42322      107.96959
C        -15.47100       20.27481      107.82196
O        -16.01214       20.72775      106.82243
C        -13.24433       20.12978      106.64029
H        -13.70932       18.60642      109.06352
H        -13.74405       21.48260      108.21298
H        -12.14119       20.14665      106.77198
H        -13.54032       19.14239      106.24999
H        -13.52023       20.89496      105.87964
N        -16.22423       19.65382      108.77780
C        -17.68091       19.50170      108.72343
C        -18.41011       19.84417      110.03245
O        -19.53195       20.32689      109.96389
C        -18.08657       18.07617      108.23037
C        -17.30667       16.95588      108.88838
O        -17.16108       16.86171      110.21333
O        -16.80920       16.08245      108.20101
H        -15.73439       19.26355      109.57532
H        -18.07929       20.27459      108.03517
H        -17.93566       17.96546      107.12817
H        -19.17563       17.92918      108.38216
N        -17.88492       19.60499      111.25298
C        -18.62045       19.85950      112.48633
C        -19.61872       18.77092      112.83124
O        -20.56972       19.04374      113.54468
H        -16.93944       19.23771      111.29964
H        -19.17302       20.81794      112.42139
H        -17.89123       19.92917      113.32208
N        -19.43842       17.49974      112.40262
C        -20.28130       16.36599      112.77995
C        -19.88995       15.72716      114.11451
O        -20.57599       14.82426      114.57301
C        -20.22524       15.35520      111.62779
C        -18.86817       14.74680      111.47533
N        -18.64311       13.86672      110.50224
O        -17.96022       15.02711      112.23742
H        -18.67614       17.34354      111.75078
H        -21.31114       16.73080      112.92769
H        -20.49218       15.89927      110.70134
H        -20.94241       14.52223      111.75873
H        -19.33741       13.62132      109.78895
H        -17.75533       13.40456      110.52939
N        -18.80601       16.18277      114.79375
C        -18.43652       15.82068      116.14513
C        -17.41797       14.66995      116.23560
O        -17.24446       14.11141      117.30740
H        -18.33727       16.98252      114.40328
H        -19.37470       15.60914      116.69188
H        -18.03753       16.74043      116.62430
N        -16.73112       14.26434      115.13445
C        -15.94230       13.03674      114.97510
C        -14.78765       13.32069      113.98060
O        -15.09618       14.14892      112.88523
C        -16.86061       11.84852      114.49040
C        -17.68109       11.21181      115.59972
O        -17.77480       12.19479      113.49070
H        -16.88900       14.81788      114.29421
H        -15.38410       12.75677      115.89867
H        -16.20722       11.05731      114.08126
H        -17.50975       13.06449      113.15080
H        -17.05667       11.02698      116.49896
H        -18.56907       11.83437      115.84078
H        -18.06284       10.24237      115.20560
N        -13.79331       12.23639      113.80545
C        -12.78322       12.26057      112.72828
C        -13.24854       11.24435      111.69155
O        -13.48756       10.09091      112.01653
C        -11.33784       12.01940      113.28708
C        -10.86641       13.23313      114.11831
C        -10.35421       11.79895      112.15462
C         -9.59817       12.95273      114.93445
H        -13.52477       11.73808      114.69101
H        -12.72840       13.25164      112.23723
H        -11.32798       11.11360      113.92911
H        -11.67275       13.49996      114.82279
H        -10.68373       14.11593      113.46150
H        -10.65275       10.88269      111.61758
H        -10.39856       12.66953      111.46721
H         -9.33007       11.66167      112.55958
H         -9.63699       11.96354      115.44067
H         -8.68849       12.99590      114.30037
H         -9.51439       13.72696      115.72089
N        -13.39195       11.64426      110.40123
C        -13.86300       10.83838      109.28862
C        -12.69190       10.51063      108.42192
O        -11.65720       11.10036      108.61158
C        -14.85894       11.60894      108.41050
C        -15.99473       12.18786      109.13717
O        -15.71111       13.20243      109.95868
O        -17.14980       11.86766      108.88884
H        -13.05410       12.55797      110.16779
H        -14.30131        9.89895      109.67008
H        -15.21727       10.95910      107.59699
H        -14.34013       12.48544      107.97305
N        -12.76024        9.53516      107.48724
C        -11.58412        9.02472      106.80517
C        -10.82299       10.01454      105.94092
O         -9.60119        9.95462      106.01504
C        -11.96295        7.75847      106.02474
C        -10.77572        7.07081      105.38842
C         -9.71917        6.58148      106.17284
C        -10.71931        6.91734      103.99894
C         -8.61201        5.96270      105.55910
C         -9.65832        6.24195      103.39590
C         -8.60101        5.76717      104.17290
H        -13.65334        9.03722      107.36463
H        -10.87491        8.74896      107.62055
H        -12.74642        8.01825      105.27700
H        -12.42795        7.04599      106.73505
H         -9.77327        6.70567      107.24861
H        -11.50008        7.32601      103.38083
H         -7.75753        5.62845      106.13728
H         -9.65520        6.10962      102.32163
H         -7.76957        5.26356      103.69373
N        -11.38153       10.93652      105.09603
C        -10.54162       11.87433      104.37284
C         -9.86826       12.85342      105.32593
O         -8.73906       13.24935      105.07889
C        -11.47798       12.51153      103.38246
C        -12.86697       12.41055      103.98237
C        -12.80420       11.17490      104.87689
H         -9.75697       11.37222      103.76186
H        -11.16348       13.52568      103.09264
H        -11.45037       11.84626      102.49217
H        -13.03982       13.30897      104.61004
H        -13.64995       12.34829      103.19195
H        -13.32118       11.41845      105.83028
H        -13.31453       10.33312      104.36634
N        -10.48003       13.22028      106.47867
C         -9.84091       14.01220      107.52942
C         -8.69500       13.24438      108.17064
O         -7.67256       13.83069      108.48810
C        -10.87059       14.37414      108.60139
C        -12.08638       15.11057      107.99706
C        -13.01410       15.49507      109.08769
O        -13.18523       14.65456      110.08691
O        -13.79345       16.41278      108.97424
H        -11.43511       12.86891      106.63093
H         -9.45724       14.97930      107.14457
H        -10.40190       15.04734      109.34452
H        -11.16836       13.46265      109.15924
H        -12.65805       14.48720      107.27559
H        -11.73619       16.01139      107.45917
N         -8.81304       11.90768      108.37682
C         -7.82096       11.06799      108.98710
H         -6.93160       11.65055      109.27712
H         -8.25588       10.57784      109.88596
H         -7.53606       10.28517      108.25457
H         -9.63526       11.43401      108.03909
Ca       -15.55127       15.49694      111.07082
O        -12.95134       16.12075      112.59485
H        -12.11891       16.31099      113.07650
H        -12.55165       15.65921      111.84180
O        -16.37474       17.26221      113.48867
H        -16.67393       18.00492      112.92751
H        -16.14876       17.69972      114.34537

Ca 1.0



