%chk=holoCaM.loop3.water3.frame485.chk
%nprocshared=20
%mem=10GB
%nosave
#b3lyp/svp scf=(tight,noincore,xqc) Test 
#IOP(5/87=12) Density=Current Pop=(MK,readradii) iop(6/33=2) iop(6/42=6)

holoCaM.loop3.water3.frame485 

   0  1 
C         98.06380       57.71759       50.76691
C         98.39512       56.25937       50.92166
O         99.01653       55.68891       50.03783
H         97.49055       58.09943       51.63994
H         98.99831       58.30896       50.68084
H         97.44535       57.86600       49.85766
N         98.00800       55.59244       52.04017
C         98.27023       54.17729       52.28471
C         97.54524       53.32207       51.24814
O         96.36201       53.54617       51.03229
C         97.80986       53.85268       53.71918
C         98.17919       52.48937       54.20529
O         98.77440       51.69432       53.49993
O         97.87003       52.15826       55.46654
H         97.50436       56.12936       52.76492
H         99.36869       53.99824       52.24488
H         96.71020       53.98530       53.80861
H         98.30776       54.56823       54.41103
N         98.19025       52.31979       50.57504
C         97.58045       51.56805       49.47631
C         97.10747       50.17217       49.85446
O         96.35849       49.61511       49.06234
C         98.56810       51.45356       48.29712
C         98.89627       52.80271       47.65200
C         99.92318       52.61625       46.52648
C        100.14967       53.92107       45.75574
N        101.15422       53.73898       44.70808
H         99.15896       52.09916       50.83530
H         96.66002       52.09452       49.13961
H         98.12910       50.80545       47.50612
H         99.50193       50.96637       48.66049
H         99.30783       53.50845       48.40486
H         97.95505       53.22481       47.23658
H         99.55989       51.84636       45.81057
H        100.88366       52.26545       46.96479
H        100.48484       54.72133       46.45171
H         99.18845       54.23598       45.29046
H        102.07784       53.50064       45.13731
H        100.86289       52.97673       44.05336
H        101.25091       54.62875       44.16777
N         97.47510       49.52977       51.00048
C         96.92221       48.22273       51.37286
C         96.23843       48.25735       52.73705
O         95.74531       47.22201       53.16345
C         97.99701       47.11603       51.27450
C         99.12230       47.21286       52.25891
O         99.14982       48.18627       53.18104
O        100.01111       46.37695       52.23942
H         98.16957       49.97026       51.61937
H         96.13747       47.91603       50.64793
H         98.41993       47.12874       50.24621
H         97.50797       46.12858       51.42674
N         96.14230       49.40662       53.47082
C         95.48812       49.46954       54.76494
C         96.22181       48.64296       55.78899
O         95.62909       47.73718       56.35748
H         96.51764       50.29070       53.10388
H         94.43229       49.13620       54.66419
H         95.48142       50.52316       55.12019
N         97.52571       48.91851       56.07599
C         98.31712       48.17791       57.05767
C         98.75985       49.05386       58.23045
O         99.32242       48.51659       59.17386
C         99.48376       47.44498       56.34071
C        100.67428       48.29673       55.82582
N        101.71315       48.43342       56.83231
O        100.26555       49.56401       55.40246
H         97.96377       49.68497       55.55432
H         97.67750       47.38177       57.49689
H         99.03750       46.91500       55.47305
H         99.88743       46.64737       57.00160
H        102.04808       47.47835       57.09552
H        102.52606       48.90022       56.37364
N         98.52848       50.40252       58.24998
C         98.84522       51.28141       59.36420
C        100.00620       52.21116       59.07319
O        100.28634       53.05327       59.91440
H         98.09383       50.85716       57.44339
H         99.11875       50.70307       60.27281
H         97.93429       51.87052       59.60592
N        100.80224       52.04329       57.97633
C        102.09319       52.70793       57.81966
C        102.30659       53.17985       56.39537
O        102.01831       52.42627       55.47469
C        103.18827       51.67991       58.17751
C        103.02973       51.20275       59.60569
C        102.68217       49.86948       59.88192
C        103.20220       52.09681       60.67587
C        102.49484       49.44233       61.19849
C        103.02031       51.66684       61.99343
C        102.66128       50.33757       62.25844
O        102.47254       49.91106       63.52319
H        100.59115       51.27834       57.32124
H        102.20823       53.56801       58.51447
H        104.20107       52.11985       58.05044
H        103.10646       50.82339       57.47772
H        102.53970       49.15999       59.08421
H        103.47227       53.12840       60.49001
H        102.21480       48.41441       61.39329
H        103.15334       52.36921       62.80607
H        102.57373       50.49960       64.28472
N        102.94015       54.36578       56.14589
C        103.32632       54.78408       54.80279
C        104.83451       54.61970       54.66759
O        105.59377       55.38272       55.24849
C        102.85372       56.23886       54.49636
C        101.30646       56.32285       54.54672
C        103.38282       56.71903       53.13011
C        100.75736       57.73815       54.33982
H        103.25063       54.94369       56.94201
H        102.85275       54.11698       54.04815
H        103.27783       56.91178       55.27493
H        100.95882       55.97818       55.54359
H        100.86669       55.65373       53.77463
H        103.12235       57.77903       52.94582
H        104.48881       56.68193       53.09872
H        102.97251       56.09768       52.30995
H        101.17667       58.42959       55.10119
H        100.98670       58.12386       53.32570
H         99.65207       57.72348       54.43919
N        105.32329       53.60015       53.90808
C        106.73419       53.36980       53.61706
C        107.27288       54.45291       52.69449
O        106.53126       55.34262       52.31393
C        106.89931       51.98680       52.94394
O        106.21133       51.94924       51.72169
H        104.64487       52.93652       53.52960
H        107.30762       53.34980       54.56927
H        106.49538       51.21214       53.63454
H        107.97124       51.75951       52.76501
H        106.13000       50.99186       51.47223
N        108.56174       54.41960       52.26197
C        109.10105       55.37742       51.30171
C        108.36691       55.29613       49.96843
O        107.92728       56.32308       49.47120
C        110.59392       55.11420       51.08238
H        109.17943       53.67413       52.61747
H        109.01301       56.40773       51.71481
H        110.76503       54.09608       50.67311
H        111.01255       55.86395       50.37735
H        111.13512       55.20684       52.04866
N        108.19212       54.09583       49.34235
C        107.54873       53.93438       48.03674
C        106.15820       54.54166       47.99830
O        105.89310       55.36902       47.13750
C        107.45713       52.44379       47.67894
H        108.53901       53.25111       49.82369
H        108.17479       54.43155       47.26294
H        108.47074       51.99122       47.65830
H        106.84236       51.89408       48.42495
H        106.99475       52.31602       46.67670
N        105.22596       54.17905       48.91830
C        103.86397       54.71259       48.96960
C        103.89830       56.23232       49.03756
O        103.29992       56.86954       48.18158
C        103.12630       54.08375       50.17657
C        102.85762       52.58011       49.92650
C        102.51428       51.84272       51.18696
O        101.34560       51.20649       51.34595
O        103.33961       51.76102       52.07314
H        105.52232       53.50695       49.64158
H        103.30800       54.43454       48.04510
H        102.14921       54.58261       50.36324
H        103.76617       54.22786       51.07560
H        103.76027       52.07753       49.52284
H        102.04693       52.48133       49.17290
N        104.62964       56.87729       49.98574
C        104.77605       58.31899       50.04876
H        105.84837       58.58207       49.92420
H        104.19899       58.84144       49.25714
H        104.43340       58.68770       51.03629
H        105.14189       56.32002       50.67543
Ca       101.06548       50.12995       53.32709
O        104.03610       50.26116       54.59526
H        104.58704       50.65069       55.31970
H        104.54176       49.46322       54.29989
O        102.07305       48.38943       50.68115
H        102.89367       48.80983       51.04290
H        101.80451       48.97420       49.92839
O        103.06220       47.23607       53.63117
H        102.07684       47.30392       53.57735
H        103.22458       46.41364       54.15763

Ca 1.0



