%chk=holoCaM.loop1.water2.frame297.chk
%nprocshared=20
%mem=10GB
%nosave
#b3lyp/svp scf=(tight,noincore,xqc) Test 
#IOP(5/87=12) Density=Current Pop=(MK,readradii) iop(6/33=2) iop(6/42=6)

holoCaM.loop1.water2.frame297 

   0  1 
C         40.14908       30.67937       37.16433
C         39.04348       30.02537       36.40231
O         39.30676       29.37469       35.40077
H         41.13011       30.46646       36.69033
H         39.98373       31.77856       37.16193
H         40.15174       30.30870       38.20901
N         37.75635       30.18564       36.81430
C         36.62122       29.67289       36.06272
C         36.66034       30.30948       34.68581
O         36.58403       31.52726       34.59713
C         35.32645       29.98334       36.83560
C         34.09918       29.55307       36.11298
O         33.93282       28.38441       35.81741
O         33.16195       30.46587       35.81016
H         37.58459       30.73106       37.67387
H         36.71326       28.57094       35.97584
H         35.25512       31.07577       37.02436
H         35.35756       29.46002       37.81721
N         36.86902       29.54384       33.57558
C         37.18484       30.11116       32.27050
C         36.00036       29.92342       31.34938
O         35.44366       30.91272       30.89361
C         38.50954       29.48129       31.76387
C         39.19109       30.30050       30.65371
C         40.55584       29.73342       30.19627
C         41.57120       29.54747       31.34377
N         42.89494       29.18751       30.83344
H         36.88667       28.51866       33.67235
H         37.36351       31.20366       32.38061
H         38.35746       28.42485       31.45140
H         39.20665       29.48229       32.62655
H         39.36515       31.32797       31.04279
H         38.52226       30.37354       29.76973
H         40.97747       30.45378       29.46062
H         40.41272       28.75916       29.68120
H         41.22173       28.73817       32.02178
H         41.65821       30.48874       31.92962
H         43.53734       29.01569       31.64129
H         42.84214       28.31916       30.25339
H         43.28234       29.97319       30.26184
N         35.51136       28.67870       31.08918
C         34.29059       28.44201       30.31531
C         33.01084       28.98383       30.98065
O         31.96575       28.90593       30.34955
C         34.14428       26.94001       29.97707
C         34.08631       26.02469       31.17037
O         34.19134       26.50691       32.42269
O         33.97166       24.82201       30.99827
H         36.03774       27.87169       31.45522
H         34.39868       28.96791       29.34088
H         35.01617       26.63416       29.35881
H         33.22778       26.79221       29.36530
N         33.00621       29.58515       32.20763
C         31.83237       30.23784       32.77257
C         30.73819       29.28457       33.19686
O         29.60927       29.44876       32.75721
H         33.87779       29.66386       32.74790
H         31.44593       30.99553       32.05598
H         32.13739       30.79482       33.67668
N         30.99727       28.29068       34.09334
C         29.98079       27.39472       34.64440
C         29.96229       27.45388       36.18924
O         29.22122       26.69408       36.79732
C         30.23628       25.96857       34.09270
C         31.43557       25.34686       34.72929
O         32.61383       25.24110       34.10015
O         31.37233       25.03055       35.89813
H         31.97072       28.15499       34.39449
H         28.97255       27.68844       34.27931
H         30.36615       26.04255       32.99110
H         29.36628       25.30547       34.29012
N         30.73955       28.34277       36.88449
C         30.75599       28.47679       38.33506
C         31.66076       27.50405       39.08248
O         31.70879       27.63110       40.29813
H         31.26771       29.05090       36.36663
H         29.71706       28.44129       38.72973
H         31.15457       29.48685       38.57947
N         32.40522       26.52837       38.47356
C         33.27300       25.60881       39.22471
C         34.64975       25.34249       38.53577
O         35.01257       26.37030       37.66288
C         32.56210       24.25510       39.47915
C         31.40299       24.37237       40.48188
O         32.12975       23.67951       38.27284
H         32.34544       26.42552       37.45804
H         33.49927       26.05929       40.21706
H         33.28017       23.54853       39.94668
H         31.22237       24.02939       38.07236
H         31.78474       24.73847       41.45796
H         30.61730       25.06466       40.11470
H         30.94630       23.37129       40.63604
N         35.68341       25.17861       39.57928
C         37.08914       25.05688       39.13972
C         37.50445       23.58981       39.01267
O         37.55927       22.87999       40.00683
C         37.97801       25.87571       40.13008
C         37.67750       27.39211       39.93074
C         39.47883       25.59574       39.95266
C         38.42526       28.32785       40.88244
H         35.43226       24.45631       40.29289
H         37.22318       25.52518       38.14705
H         37.71810       25.56823       41.16729
H         36.59125       27.57443       40.07474
H         37.93685       27.68752       38.88820
H         39.70796       24.51914       40.08476
H         39.81259       25.92484       38.95863
H         40.07389       26.12597       40.72223
H         39.52273       28.27166       40.73335
H         38.12329       29.37658       40.67362
H         38.17636       28.08611       41.93614
N         37.80932       23.08409       37.78249
C         38.25202       21.71122       37.52400
C         39.72850       21.51364       37.88117
O         40.36721       22.44414       38.35244
C         38.03518       21.36428       36.02259
C         36.55565       21.41071       35.62364
O         38.82237       22.18968       35.20060
H         37.67116       23.70870       36.97686
H         37.62789       21.00114       38.11129
H         38.33877       20.31707       35.82531
H         38.30744       23.00026       34.95359
H         36.44436       21.10727       34.56145
H         35.96821       20.70896       36.25325
H         36.15016       22.43451       35.74607
N         40.34407       20.31907       37.62598
C         41.77264       20.05161       37.81988
C         42.62381       21.03037       37.01955
O         43.49718       21.65932       37.59586
C         42.13330       18.59365       37.41892
C         41.44603       17.56314       38.32273
O         41.78387       18.34916       36.07955
H         39.76778       19.56011       37.23705
H         42.02885       20.17132       38.89709
H         43.23576       18.47717       37.54734
H         42.31282       17.56504       35.77799
H         41.76560       16.54034       38.03073
H         41.73345       17.73140       39.38161
H         40.34159       17.61564       38.23574
N         42.39939       21.22284       35.68855
C         43.10776       22.21502       34.87846
C         42.98571       23.61496       35.48183
O         44.00717       24.26660       35.65655
C         42.64312       22.19573       33.38202
C         41.12310       22.31917       33.16710
C         40.68299       22.49387       31.71191
C         39.14575       22.63499       31.60420
N         38.43985       21.38937       31.92351
H         41.66261       20.65866       35.25297
H         44.19225       21.96326       34.85592
H         42.96629       21.24154       32.91284
H         43.16462       23.02450       32.85264
H         40.76317       23.21068       33.67162
H         40.63521       21.42248       33.58056
H         41.03169       21.65023       31.08071
H         41.14029       23.43403       31.33122
H         38.88972       22.92215       30.56192
H         38.78895       23.45220       32.27277
H         38.60197       21.09005       32.90845
H         37.41207       21.53937       31.80507
H         38.74639       20.63012       31.27371
N         41.77654       24.14658       35.81801
C         41.60263       25.51903       36.29305
C         42.17916       25.73883       37.68905
O         42.24583       26.88451       38.11270
C         40.10014       25.89498       36.25452
C         39.57019       25.92064       34.80668
C         38.08220       26.07035       34.69588
O         37.30507       26.15632       35.78766
O         37.56321       26.07022       33.59168
H         40.94105       23.55894       35.70987
H         42.13891       26.20129       35.59617
H         39.92960       26.89952       36.69975
H         39.54297       25.14210       36.85011
H         39.80654       24.97677       34.30173
H         40.06788       26.74531       34.25325
N         42.60156       24.70594       38.47022
C         43.17190       24.89935       39.78548
H         44.10871       25.48973       39.70792
H         42.45198       25.42464       40.44586
H         43.41212       23.91328       40.23979
H         42.50702       23.74390       38.13852
Ca        34.25552       25.66860       35.60440
O         35.55170       23.55800       33.34295
H         35.21271       22.69057       33.00695
H         36.12420       23.89942       32.61142
O         33.64337       22.49158       36.18886
H         33.73333       21.78129       35.50689
H         32.99337       23.11845       35.79125

Ca 1.0



