%chk=holoCaM.loop1.water2.frame419.chk
%nprocshared=20
%mem=10GB
%nosave
#b3lyp/svp scf=(tight,noincore,xqc) Test 
#IOP(5/87=12) Density=Current Pop=(MK,readradii) iop(6/33=2) iop(6/42=6)

holoCaM.loop1.water2.frame419 

   0  1 
C          4.71427       94.39814       33.31695
C          5.48885       95.37408       32.47902
O          4.93451       96.40501       32.12990
H          3.81511       94.06260       32.75738
H          5.32313       93.50672       33.57417
H          4.38811       94.89031       34.25773
N          6.77650       95.11365       32.10778
C          7.56964       96.01956       31.28485
C          7.95647       95.33424       29.97722
O          8.54623       94.26340       30.02681
C          8.84162       96.46088       32.02985
C          9.54137       97.48338       31.17950
O          8.97299       98.69432       31.01626
O         10.54769       97.18469       30.56182
H          7.21319       94.23098       32.41535
H          6.99131       96.93659       31.06675
H          9.48951       95.57386       32.20422
H          8.60336       96.91484       33.01760
N          7.68187       95.91782       28.77111
C          8.02363       95.32430       27.48140
C          8.95796       96.20467       26.63356
O          9.20386       95.83380       25.49397
C          6.74648       94.95259       26.67254
C          5.86314       96.11050       26.15441
C          4.76734       96.56178       27.13299
C          3.87828       97.68015       26.55113
N          4.59817       98.94647       26.39496
H          7.21927       96.83146       28.76402
H          8.55693       94.36077       27.63518
H          6.12468       94.20882       27.21781
H          7.12369       94.42735       25.76819
H          5.30897       95.72718       25.27001
H          6.50783       96.94272       25.80804
H          5.17917       96.88595       28.09211
H          4.11744       95.68490       27.34452
H          3.02188       97.84422       27.23749
H          3.45409       97.36303       25.57411
H          5.36258       98.85860       25.69037
H          3.93175       99.68108       26.06477
H          4.99302       99.25289       27.31161
N          9.53557       97.35186       27.10247
C         10.36607       98.23801       26.27318
C         11.82327       98.24963       26.71727
O         12.60042       99.00059       26.14175
C          9.83886       99.67935       26.38169
C          8.39463       99.81279       26.01852
O          7.49956      100.04453       26.99315
O          8.02545       99.69886       24.86096
H          9.39511       97.61389       28.08675
H         10.34203       97.92590       25.20637
H         10.42866      100.38552       25.75712
H          9.97046       99.99639       27.43347
N         12.27814       97.45617       27.72649
C         13.65076       97.48561       28.20226
C         13.97931       98.69133       29.06761
O         15.07630       98.71165       29.60802
H         11.64724       96.77119       28.16456
H         14.35894       97.38691       27.35103
H         13.79427       96.60291       28.86202
N         13.08845       99.70183       29.30462
C         13.33303      100.74286       30.30285
C         13.12117      100.22395       31.73330
O         13.36490      100.97897       32.66368
C         12.51274      102.02138       29.99797
C         11.03754      101.79798       29.81672
O         10.29837      101.25767       30.79524
O         10.49927      102.11822       28.76954
H         12.17508       99.69127       28.83455
H         14.39519      101.06998       30.23172
H         12.90454      102.46633       29.05631
H         12.67578      102.76649       30.80697
N         12.72105       98.94042       31.99003
C         12.61923       98.35809       33.32307
C         11.51914       98.90968       34.21665
O         11.44951       98.46249       35.35284
H         12.55933       98.29873       31.20822
H         13.59917       98.48268       33.83377
H         12.43376       97.26650       33.21926
N         10.64650       99.87671       33.81213
C          9.65975      100.50435       34.69517
C          8.23889      100.40221       34.14056
O          8.03725       99.82305       33.08766
C         10.07000      101.97929       34.93846
C         11.42191      102.07997       35.66374
O         10.08097      102.71470       33.73967
H         10.72081      100.23185       32.85663
H          9.64459      100.00068       35.68672
H          9.33554      102.45879       35.61625
H         10.91525      102.50100       33.24633
H         11.66403      103.14486       35.86079
H         11.37307      101.54198       36.63470
H         12.23938      101.63838       35.05688
N          7.19064      100.94234       34.82596
C          5.79183      100.85734       34.40994
C          5.26464      102.26056       34.11231
O          5.42116      103.15563       34.93121
C          4.96675      100.13689       35.52195
C          5.47101       98.67421       35.67928
C          3.45706      100.15628       35.20678
C          4.78576       97.89154       36.80194
H          7.38085      101.43037       35.71345
H          5.68045      100.24729       33.48630
H          5.11586      100.68392       36.47903
H          6.55763       98.68359       35.90832
H          5.32672       98.12072       34.72404
H          3.24083       99.59130       34.27987
H          2.86802       99.71745       36.03533
H          3.08900      101.19509       35.09866
H          3.70341       97.75447       36.60457
H          5.23567       96.87860       36.87097
H          4.92474       98.41125       37.77290
N          4.55503      102.48528       32.96793
C          3.93579      103.75007       32.58611
C          2.43182      103.66842       32.80408
O          1.94072      102.65705       33.28528
C          4.20123      104.05133       31.07445
C          5.68118      104.12708       30.70640
O          3.52849      103.13179       30.24516
H          4.36572      101.68610       32.36137
H          4.33294      104.58355       33.20521
H          3.79385      105.05275       30.82867
H          4.08018      102.31434       30.16761
H          6.16525      103.14323       30.86878
H          5.77707      104.39037       29.63057
H          6.18664      104.90730       31.31071
N          1.62892      104.69714       32.41913
C          0.17143      104.61437       32.39336
C         -0.26559      103.49086       31.45490
O         -1.07691      102.66741       31.84893
C         -0.44991      105.96191       31.94133
C         -0.16475      107.07975       32.95423
O          0.04171      106.33088       30.67751
H          2.07584      105.55423       32.06396
H         -0.21734      104.40149       33.41529
H         -1.55488      105.81927       31.88904
H         -0.58858      107.00061       30.30449
H         -0.65341      108.02011       32.62319
H         -0.57218      106.80641       33.95063
H          0.92358      107.27225       33.05405
N          0.25703      103.39433       30.19783
C         -0.09704      102.35082       29.22879
C          0.29066      100.93105       29.65694
O         -0.07268      100.01088       28.93687
C          0.56909      102.67918       27.86480
C         -0.03074      103.93864       27.20317
C         -1.38939      103.63631       26.54657
C         -2.03544      104.89868       25.96469
N         -3.24916      104.56107       25.21975
H          0.93707      104.11473       29.91292
H         -1.19929      102.34498       29.10790
H          0.48160      101.83886       27.14157
H          1.65518      102.83486       28.05116
H          0.65245      104.27783       26.39416
H         -0.11310      104.76408       27.94251
H         -2.10097      103.19324       27.27201
H         -1.21745      102.90042       25.72967
H         -1.32544      105.41524       25.28221
H         -2.28949      105.59046       26.79918
H         -3.70600      105.44048       24.88716
H         -3.00110      103.97644       24.38801
H         -3.92012      104.03735       25.82767
N          1.00077      100.65903       30.79082
C          1.34619       99.30540       31.23048
C          0.76132       98.96396       32.59658
O          0.92483       97.82665       33.01940
C          2.87154       99.17871       31.33116
C          3.57105       99.35511       29.98951
C          5.05704       99.36748       30.17828
O          5.66456      100.35130       30.86197
O          5.73100       98.48334       29.69890
H          1.33610      101.43791       31.36103
H          0.95918       98.54713       30.51475
H          3.14859       98.18153       31.73403
H          3.22123       99.94006       32.04400
H          3.27164      100.29564       29.48681
H          3.27314       98.50420       29.34684
N          0.09761       99.87315       33.36308
C         -0.41699       99.53896       34.67250
H         -1.17240       98.72995       34.58823
H          0.41294       99.20599       35.33174
H         -0.89453      100.43132       35.13002
H         -0.03528      100.83504       33.03796
Ca         8.17696       99.59977       29.10738
O          7.58566      102.92467       28.06396
H          7.98030      103.78734       28.34759
H          6.92912      103.17022       27.36471
O          8.70363      103.43610       31.22818
H          8.61632      104.37048       30.91549
H          8.18988      103.39970       32.07375

Ca 1.0



