%chk=holoCaM-CaMKII.loop2.water1.frame162.chk
%nprocshared=20
%mem=10GB
%nosave
#b3lyp/svp scf=(tight,noincore,xqc) Test 
#IOP(5/87=12) Density=Current Pop=(MK,readradii) iop(6/33=2) iop(6/42=6)

holoCaM-CaMKII.loop2.water1.frame162 

   -2  1 
C        104.38432       81.65392        7.52529
C        104.59265       83.03861        6.96753
O        103.62248       83.70510        6.64153
H        103.77572       81.71166        8.45279
H        103.86298       81.01368        6.78503
H        105.35076       81.16855        7.78522
N        105.85021       83.54377        6.85955
C        106.16308       84.90066        6.41661
C        105.78726       85.15614        4.95979
O        106.22686       84.41508        4.09178
C        107.67188       85.14263        6.61188
C        108.08029       86.51696        6.18343
O        108.93521       86.65776        5.32438
O        107.49607       87.59672        6.73275
H        106.63079       82.94021        7.16415
H        105.62895       85.62247        7.07510
H        108.25368       84.38920        6.03548
H        107.91683       85.02416        7.68968
N        105.03320       86.24976        4.62789
C        104.69574       86.63022        3.25519
C        105.20373       88.02454        2.85641
O        105.04085       88.37379        1.69523
C        103.17082       86.61291        3.10242
H        104.68851       86.84591        5.39082
H        105.13273       85.89873        2.54183
H        102.71064       87.36400        3.78203
H        102.87550       86.85888        2.05995
H        102.76751       85.61129        3.35768
N        105.75656       88.89610        3.75345
C        106.11722       90.28727        3.42878
C        107.54581       90.66437        3.80806
O        107.94346       91.78647        3.52503
C        105.11259       91.24348        4.11887
C        105.04247       91.10815        5.62343
O        105.89482       90.30096        6.28437
O        104.14311       91.66204        6.23446
H        105.84014       88.58744        4.72603
H        106.02593       90.45736        2.33370
H        104.10759       90.98775        3.71719
H        105.32198       92.30188        3.85079
N        108.36668       89.80447        4.46741
C        109.71479       90.13370        4.89053
C        109.74819       91.31185        5.83750
O        110.46974       92.25935        5.55992
H        108.03011       88.86613        4.69112
H        110.34867       90.33765        3.99971
H        110.14565       89.25590        5.41980
N        109.00428       91.31688        6.98293
C        109.06963       92.39214        7.97374
C        109.52060       91.88106        9.34566
O        109.57435       92.67349       10.27612
C        107.73835       93.17399        8.04569
C        106.54664       92.45100        8.61071
N        105.39221       93.12980        8.79174
O        106.61129       91.27491        8.92581
H        108.37847       90.51772        7.16408
H        109.82078       93.14986        7.66134
H        107.47875       93.54626        7.03006
H        107.90857       94.06016        8.69488
H        105.31968       94.12626        8.54055
H        104.57380       92.66821        9.20192
N        109.91656       90.58681        9.53420
C        110.45082       90.07239       10.78689
C        109.42935       89.79742       11.87538
O        109.84165       89.27749       12.90287
H        109.94540       89.94269        8.73246
H        111.25275       90.74649       11.15877
H        110.91997       89.08821       10.57008
N        108.10158       90.08013       11.74383
C        107.10327       89.74042       12.75941
C        106.00324       88.86755       12.17220
O        105.95721       88.67933       10.96535
C        106.51149       91.03719       13.37020
C        107.57094       91.77969       14.18806
O        106.03046       91.89719       12.36701
H        107.77405       90.55370       10.89557
H        107.56184       89.14442       13.57831
H        105.68974       90.79513       14.08148
H        105.23462       91.46502       11.96263
H        107.12924       92.69215       14.64148
H        107.94179       91.12859       15.00942
H        108.42936       92.07970       13.55107
N        105.04706       88.32920       12.98283
C        103.90438       87.58172       12.47272
C        102.74213       88.55012       12.41900
O        102.40977       89.13401       13.44283
C        103.54911       86.34841       13.36790
C        104.76037       85.40660       13.58412
C        102.36816       85.57420       12.73808
C        104.46159       84.25612       14.55804
H        105.07407       88.54414       13.99164
H        104.11688       87.20134       11.44708
H        103.23583       86.72542       14.36710
H        105.59413       85.99104       14.02688
H        105.10367       84.98616       12.61417
H        102.65317       85.16428       11.74416
H        102.02176       84.74257       13.38137
H        101.49216       86.23397       12.60969
H        105.38135       83.65934       14.72884
H        104.11519       84.65629       15.53547
H        103.69395       83.56242       14.15918
N        102.05699       88.74810       11.25962
C        100.88614       89.61402       11.16967
C         99.64581       88.76533       11.29188
O         99.77728       87.55698       11.38728
C        100.88299       90.38001        9.83342
C        102.11139       91.21967        9.65974
O        102.00131       92.55493        9.52512
O        103.21174       90.69397        9.61432
H        102.30288       88.17501       10.43922
H        100.87597       90.33982       12.01310
H         99.99078       91.04003        9.79017
H        100.82649       89.66126        8.98557
N         98.39959       89.30541       11.35237
C         97.22664       88.45482       11.50069
C         97.01828       87.57267       10.26663
O         96.88426       86.37352       10.46130
C         95.96998       89.24530       11.91754
C         94.80801       88.31423       12.19386
C         93.61328       88.44049       11.46676
C         94.90696       87.30653       13.17581
C         92.54317       87.57413       11.71142
C         93.83809       86.43882       13.41017
C         92.65673       86.57231       12.67899
H         98.29160       90.33215       11.34239
H         97.42630       87.78602       12.36686
H         95.69155       89.99442       11.15615
H         96.19697       89.80379       12.85194
H         93.50958       89.20761       10.70996
H         95.80906       87.18142       13.76029
H         91.62563       87.67797       11.14810
H         93.92733       85.66232       14.15948
H         91.82942       85.89982       12.86357
N         97.02899       88.04671        8.97293
C         96.87224       87.20021        7.78412
C         97.90298       86.08088        7.60962
O         97.79943       85.34202        6.63964
C         97.01784       88.18736        6.61644
C         96.48594       89.46656        7.21536
C         97.13118       89.44088        8.59526
H         95.84725       86.77027        7.82142
H         98.10044       88.37086        6.41709
H         96.53645       87.85972        5.67020
H         96.69046       90.38657        6.62797
H         95.38366       89.35346        7.33774
H         98.20568       89.72214        8.54718
H         96.57460       90.13959        9.24021
N         98.92173       85.90079        8.49463
C         99.95326       84.87888        8.40570
C         99.73062       83.87994        9.52539
O         99.57315       82.70045        9.24387
C        101.33225       85.57384        8.48697
C        101.50355       86.50695        7.27692
C        102.69932       87.40420        7.32324
O        102.86399       88.18747        6.40173
O        103.56418       87.43047        8.35563
H         99.00995       86.53885        9.28727
H         99.89386       84.32079        7.44341
H        102.15380       84.82666        8.50323
H        101.38583       86.16397        9.42724
H        100.63093       87.18895        7.20311
H        101.54918       85.89077        6.35219
N         99.63700       84.28957       10.81903
C         99.31664       83.39419       11.90597
H         98.33213       82.91380       11.71834
H        100.10379       82.62094       12.01006
H         99.24521       83.97019       12.85449
H         99.75636       85.27835       11.04395
Ca       105.12390       88.99784        7.94787
O        108.03867       87.98174        9.42036
H        108.85737       87.65168        8.97548
H        107.43178       87.19921        9.44278

Ca 1.0



