%chk=holoCaM.loop1.water1.frame242.chk
%nprocshared=20
%mem=10GB
%nosave
#b3lyp/svp scf=(tight,noincore,xqc) Test 
#IOP(5/87=12) Density=Current Pop=(MK,readradii) iop(6/33=2) iop(6/42=6)

holoCaM.loop1.water1.frame242 

   0  1 
C         50.22375      109.34873       64.10411
C         49.61747      110.53125       63.41122
O         50.27349      111.10666       62.55675
H         51.15171      109.65976       64.62730
H         49.52394      108.91070       64.84617
H         50.47149      108.57088       63.35115
N         48.36411      110.95650       63.73363
C         47.70266      112.07341       63.07796
C         47.50604      113.17551       64.10352
O         46.51738      113.17840       64.82430
C         46.39120      111.56200       62.44838
C         45.66206      112.58544       61.63377
O         46.14759      113.82655       61.48475
O         44.62094      112.27883       61.08088
H         47.84782      110.46580       64.48045
H         48.33396      112.47383       62.25227
H         45.71471      111.18501       63.24538
H         46.63418      110.71779       61.76731
N         48.50717      114.07941       64.29929
C         48.50512      115.07187       65.37259
C         47.46228      116.17349       65.20372
O         47.30532      116.95885       66.12811
C         49.90371      115.73254       65.51367
C         51.08186      114.74697       65.67831
C         50.86192      113.74745       66.81929
C         52.06924      112.82349       66.99965
N         51.79942      111.82861       68.03705
H         49.34250      113.98381       63.70805
H         48.27463      114.53874       66.31952
H         49.88592      116.40135       66.40197
H         50.11418      116.36160       64.61972
H         52.00194      115.34262       65.86631
H         51.25131      114.18018       64.73876
H         49.98320      113.11175       66.58072
H         50.67081      114.29658       67.76642
H         52.95926      113.42811       67.28277
H         52.28793      112.29877       66.04239
H         52.64288      111.22482       68.16357
H         51.57790      112.30199       68.94305
H         50.99321      111.22601       67.75019
N         46.75250      116.32679       64.05015
C         45.78680      117.40676       63.82613
C         44.38840      116.90664       63.48094
O         43.49402      117.73429       63.36444
C         46.31272      118.38079       62.74377
C         46.65281      117.77485       61.39773
O         46.55529      116.44728       61.17398
O         47.06768      118.50411       60.51428
H         46.94336      115.67241       63.28716
H         45.66557      118.00466       64.75628
H         47.23965      118.85495       63.13401
H         45.56307      119.18937       62.59675
N         44.10877      115.58613       63.31050
C         42.78333      115.07616       63.01040
C         42.20916      115.62920       61.72568
O         41.07821      116.09353       61.74003
H         44.85540      114.88745       63.40783
H         42.09359      115.28693       63.85688
H         42.85470      113.97190       62.90095
N         42.92307      115.58095       60.56746
C         42.36826      115.92786       59.25989
C         42.45809      114.72306       58.31794
O         42.24020      114.87641       57.12418
C         43.02202      117.21842       58.70323
C         44.47593      117.14231       58.36048
O         45.08352      116.10031       58.46902
O         45.11369      118.23423       57.89905
H         43.89454      115.23613       60.60635
H         41.29063      116.18716       59.34446
H         42.88746      118.02401       59.45694
H         42.48650      117.52160       57.77818
N         42.70595      113.47138       58.81301
C         42.75123      112.25811       58.01860
C         44.00529      112.07928       57.18838
O         44.09215      111.03864       56.55130
H         42.77555      113.33558       59.82877
H         41.84334      112.19430       57.38007
H         42.72729      111.39121       58.71575
N         45.00856      113.00934       57.12193
C         46.19804      112.82093       56.29443
C         47.51515      113.03847       57.10150
O         47.75144      114.41216       57.29105
C         46.13020      113.70748       55.01957
C         44.94471      113.32814       54.12004
O         46.08968      115.07896       55.33141
H         44.91227      113.89054       57.63206
H         46.22204      111.76812       55.93786
H         47.04832      113.52337       54.42048
H         45.20523      115.27649       55.73588
H         44.96037      113.94656       53.19835
H         45.01260      112.25832       53.82792
H         43.97880      113.49580       54.64188
N         48.64272      112.49059       56.33274
C         49.92672      112.41964       57.05357
C         50.92223      113.22986       56.24623
O         51.05533      113.00476       55.05109
C         50.40129      110.94229       57.24821
C         49.37922      110.08045       58.04452
C         51.79188      110.87357       57.91277
C         49.08883      110.56209       59.47026
H         48.42276      111.59781       55.83335
H         49.84511      112.87840       58.06366
H         50.50535      110.47420       56.24378
H         49.76528      109.03906       58.10435
H         48.41486      110.03590       57.49763
H         52.11817      109.81657       58.01500
H         52.55251      111.39483       57.29589
H         51.78565      111.34025       58.91638
H         50.01235      110.56843       60.07926
H         48.63480      111.57368       59.47315
H         48.36914      109.86804       59.95298
N         51.66657      114.19072       56.85599
C         52.59116      115.08163       56.16786
C         54.02392      114.68121       56.46805
O         54.24707      113.66449       57.10981
C         52.31654      116.54870       56.60991
C         50.88258      116.99629       56.29449
O         52.62927      116.73472       57.97183
H         51.58923      114.28898       57.87412
H         52.46099      115.01622       55.06549
H         52.96773      117.23875       56.03732
H         51.83764      116.49721       58.51705
H         50.14288      116.37069       56.83756
H         50.75274      118.05569       56.60235
H         50.68727      116.91791       55.20537
N         55.05531      115.45328       56.02788
C         56.45358      115.19299       56.35018
C         56.65554      115.17966       57.85959
O         57.23005      114.22998       58.37041
C         57.38426      116.25158       55.69583
C         57.33732      116.19047       54.16348
O         57.03659      117.54503       56.12193
H         54.83194      116.28721       55.46838
H         56.75163      114.19895       55.94579
H         58.42764      116.01451       56.01340
H         57.84977      118.10853       56.04070
H         56.32496      116.42507       53.77488
H         58.04713      116.93154       53.73874
H         57.63192      115.18007       53.81016
N         56.21614      116.21279       58.63284
C         56.43812      116.29002       60.07722
C         55.63231      115.27010       60.88723
O         55.83643      115.21912       62.09247
C         56.15495      117.72770       60.57318
C         57.14591      118.72033       59.93310
C         56.90466      120.16329       60.38962
C         57.88608      121.15705       59.73738
N         59.27526      120.92526       60.14281
H         55.74233      116.99804       58.16269
H         57.51446      116.08661       60.27521
H         56.29082      117.77698       61.67605
H         55.10444      118.00894       60.33638
H         57.06307      118.69391       58.82649
H         58.16962      118.40186       60.21789
H         56.98476      120.23511       61.49577
H         55.87331      120.45568       60.09359
H         57.59394      122.18462       60.04619
H         57.80432      121.09911       58.62876
H         59.35853      120.96853       61.18441
H         59.62161      120.00397       59.79426
H         59.87899      121.67028       59.72633
N         54.72722      114.41970       60.31823
C         53.98016      113.40566       61.06492
C         54.33163      111.99001       60.60595
O         53.78970      111.05174       61.17431
C         52.46694      113.62502       60.87066
C         51.99851      115.02808       61.27740
C         50.54306      115.21959       60.95534
O         50.14431      115.07278       59.81258
O         49.67506      115.58932       61.91214
H         54.54625      114.48817       59.31323
H         54.21309      113.46696       62.15021
H         51.89571      112.86965       61.45195
H         52.24371      113.47017       59.79848
H         52.57123      115.79014       60.71077
H         52.17460      115.18785       62.36288
N         55.21356      111.75015       59.59039
C         55.55254      110.42564       59.11066
H         56.64570      110.26454       59.21998
H         55.01920      109.62252       59.65944
H         55.28846      110.34968       58.03430
H         55.67444      112.52851       59.11086
Ca        47.33562      115.24580       59.38803
O         48.87894      117.96648       58.52975
H         49.32104      117.62782       59.34825
H         49.12645      118.92426       58.49427

Ca 1.0



