%chk=holoCaM-CaMKII.loop3.water2.frame493.chk
%nprocshared=20
%mem=10GB
%nosave
#b3lyp/svp scf=(tight,noincore,xqc) Test 
#IOP(5/87=12) Density=Current Pop=(MK,readradii) iop(6/33=2) iop(6/42=6)

holoCaM-CaMKII.loop3.water2.frame493 

   0  1 
C         -2.81240       93.55247       81.67014
C         -1.97672       94.18419       80.59490
O         -1.11949       94.99612       80.91277
H         -3.55409       92.84372       81.24430
H         -2.15520       92.99080       82.36770
H         -3.35570       94.33919       82.23229
N         -2.14591       93.82713       79.29172
C         -1.31537       94.35460       78.21542
C         -1.64996       95.82323       77.97313
O         -2.75905       96.13958       77.56767
C         -1.49431       93.46101       76.97321
C         -0.52138       93.62791       75.83991
O          0.01836       94.80369       75.49524
O         -0.41361       92.70623       75.05719
H         -2.84619       93.10049       79.07324
H         -0.25270       94.23482       78.52710
H         -2.53502       93.48818       76.58515
H         -1.31633       92.42217       77.33054
N         -0.72397       96.77463       78.26443
C         -0.91515       98.21860       78.14683
C         -1.20285       98.64092       76.71374
O         -2.18262       99.34044       76.50029
C          0.33268       98.93964       78.72407
C          0.19551      100.46898       78.81873
C          1.36835      101.07699       79.61306
C          1.20124      102.59424       79.79228
N          2.27152      103.15065       80.62240
H          0.16116       96.44142       78.65375
H         -1.77317       98.51578       78.79112
H          1.24549       98.68249       78.14289
H          0.45670       98.56187       79.76192
H         -0.74650      100.70891       79.35745
H          0.15084      100.91157       77.79994
H          2.33146      100.86455       79.09859
H          1.39800      100.60892       80.62220
H          0.22478      102.80165       80.28410
H          1.20628      103.09190       78.79748
H          2.11810      104.17909       80.73613
H          2.26039      102.70667       81.56989
H          3.20166      102.99428       80.17117
N         -0.40012       98.24774       75.68330
C         -0.57686       98.69420       74.29821
C         -1.05282       97.58745       73.35148
O         -1.07746       97.81845       72.15031
C          0.71825       99.38710       73.80715
C          1.94252       98.51400       73.70592
O          2.99707       99.00231       73.33409
O          1.90009       97.20740       74.00916
H          0.37751       97.61146       75.89871
H         -1.36532       99.47563       74.24306
H          0.94802      100.22268       74.50350
H          0.53145       99.82372       72.80238
N         -1.54034       96.40163       73.81752
C         -2.11162       95.36365       72.96489
C         -1.15475       94.66698       72.00453
O         -1.64245       93.85373       71.23151
H         -1.61970       96.26815       74.83236
H         -2.93309       95.82037       72.37121
H         -2.56341       94.57668       73.60797
N          0.18740       94.91974       71.95654
C          1.05957       94.32993       70.93221
C          1.21236       92.80909       71.02196
O          1.73930       92.22346       70.08640
C          2.45453       94.98507       70.94795
C          3.27767       94.55614       72.13960
N          4.46257       93.93208       71.96164
O          2.87034       94.75689       73.27256
H          0.58046       95.60849       72.60755
H          0.59262       94.57880       69.95260
H          2.34431       96.09099       70.94020
H          2.98935       94.69905       70.01607
H          4.83311       93.74315       71.01875
H          5.01078       93.63826       72.77880
N          0.80534       92.11464       72.12043
C          0.85526       90.66714       72.23845
C          1.64108       90.15377       73.43361
O          1.52736       88.95889       73.67600
H          0.39520       92.63000       72.89992
H          1.25302       90.18107       71.32108
H         -0.19484       90.32426       72.36182
N          2.47331       90.92665       74.20557
C          3.20774       90.35911       75.34544
C          3.15417       91.21995       76.60222
O          2.64961       92.33518       76.55979
C          4.64369       89.94972       74.92901
C          5.60771       91.03074       74.47973
C          6.05318       92.03592       75.35815
C          6.13745       90.98760       73.17554
C          7.00914       92.97000       74.93951
C          7.09270       91.92089       72.76123
C          7.53419       92.91507       73.64418
O          8.46188       93.81624       73.26139
H          2.64383       91.90882       73.94052
H          2.71956       89.40545       75.64518
H          4.52795       89.20654       74.10981
H          5.12861       89.40902       75.76816
H          5.68687       92.09067       76.37297
H          5.82513       90.22034       72.47846
H          7.35319       93.73198       75.62685
H          7.49262       91.86607       71.75622
H          8.85609       93.80592       72.37707
N          3.66889       90.73122       77.77343
C          3.71479       91.45636       79.04213
C          5.17824       91.63206       79.43563
O          5.91721       90.65492       79.42514
C          2.97525       90.68701       80.17971
C          1.56542       90.16878       79.79781
C          2.90748       91.55870       81.45463
C          0.54147       91.23998       79.42398
H          4.07098       89.78071       77.76821
H          3.22319       92.44951       78.93596
H          3.56485       89.77401       80.42075
H          1.16072       89.59088       80.65882
H          1.65976       89.46112       78.94678
H          2.41598       91.00569       82.28214
H          3.92229       91.84539       81.79954
H          2.34167       92.49687       81.26821
H          0.87570       91.80835       78.53466
H         -0.42230       90.74337       79.18049
H          0.35750       91.93691       80.26615
N          5.65567       92.84513       79.82055
C          7.04419       93.11612       80.17053
C          7.15951       93.59665       81.60783
O          6.15446       93.70751       82.29744
C          7.61614       94.18031       79.21360
O          7.05296       95.44151       79.47036
H          4.99066       93.61356       79.88914
H          7.65494       92.19465       80.05416
H          7.46267       93.86482       78.15502
H          8.71332       94.27209       79.34691
H          6.44334       95.65638       78.72322
N          8.37768       93.91413       82.12132
C          8.57623       94.43412       83.46770
C          7.93349       95.80093       83.64488
O          7.16477       95.97506       84.57912
C         10.07525       94.54722       83.76763
H          9.20774       93.77154       81.52434
H          8.15212       93.71711       84.20647
H         10.57450       95.24315       83.05986
H         10.23038       94.91545       84.80427
H         10.55175       93.54784       83.67711
N          8.23343       96.82667       82.79455
C          7.76069       98.19759       82.98099
C          6.25411       98.27883       83.06445
O          5.73838       98.76713       84.06073
C          8.25724       99.09441       81.83594
H          8.85418       96.62660       81.99500
H          8.18596       98.59282       83.92962
H          9.36638       99.09010       81.79955
H          7.87473       98.74002       80.85393
H          7.91435      100.14041       81.98971
N          5.48451       97.83086       82.04160
C          4.03107       97.92721       82.03635
C          3.42481       97.19475       83.22389
O          2.57279       97.75919       83.89594
C          3.49332       97.46670       80.67436
C          3.63864       95.96782       80.40191
C          3.42182       95.70686       78.94601
O          4.18095       95.02243       78.28395
O          2.40246       96.28961       78.33836
H          5.96175       97.42362       81.22240
H          3.75125       99.00269       82.10633
H          4.04765       98.04528       79.90059
H          2.41991       97.73396       80.58217
H          2.86440       95.43302       80.99690
H          4.63610       95.59714       80.69167
N          3.88940       95.97059       83.59788
C          3.41482       95.28745       84.78142
H          2.33539       95.05198       84.68211
H          3.98047       94.34128       84.92355
H          3.57796       95.92571       85.67715
H          4.64242       95.52856       83.05606
Ca         1.88730       95.56701       76.35035
O          4.18243       98.03725       76.67300
H          4.92405       97.58568       77.14921
H          4.58633       98.34926       75.82498
O          5.20380       95.64509       74.81783
H          6.01561       95.84108       75.34856
H          5.42609       95.95444       73.90387

Ca 1.0



