%chk=holoCaM.loop2.water1.frame76.chk
%nprocshared=20
%mem=10GB
%nosave
#b3lyp/svp scf=(tight,noincore,xqc) Test 
#IOP(5/87=12) Density=Current Pop=(MK,readradii) iop(6/33=2) iop(6/42=6)

holoCaM.loop2.water1.frame76 

   -2  1 
C         89.50843       29.86433      103.04404
C         89.26174       31.29586      102.66281
O         88.14155       31.62756      102.30680
H         90.55876       29.70637      103.36943
H         88.84049       29.58882      103.88808
H         89.29953       29.19997      102.18103
N         90.26580       32.21191      102.73953
C         90.07248       33.63343      102.47979
C         89.67163       33.88155      101.02688
O         90.36851       33.43656      100.12602
C         91.36307       34.40914      102.82688
C         91.15649       35.89394      102.96751
O         92.21046       36.68610      103.23659
O         90.04040       36.38299      102.91591
H         91.19461       31.88940      103.05255
H         89.28113       33.98800      103.17699
H         92.14062       34.19530      102.06244
H         91.74305       34.07004      103.81388
N         88.55591       34.60653      100.74197
C         88.04612       34.88006       99.40215
C         88.02572       36.37663       99.09588
O         87.45239       36.75217       98.08139
C         86.61624       34.32438       99.31929
H         88.03111       34.99913      101.52906
H         88.65266       34.37308       98.62084
H         86.61484       33.23469       99.53201
H         85.95461       34.83177      100.05471
H         86.19207       34.47840       98.30348
N         88.62628       37.29379       99.91269
C         88.44890       38.73572       99.73309
C         89.50671       39.63758      100.38616
O         89.42056       40.83889      100.16602
C         87.04291       39.11891      100.25358
C         86.81983       38.76209      101.71283
O         87.78514       38.16890      102.45453
O         85.73674       38.99709      102.22290
H         89.14005       36.94593      100.72108
H         88.52638       38.96617       98.64660
H         86.27778       38.58131       99.65371
H         86.87190       40.20813      100.10930
N         90.52565       39.18072      101.17261
C         91.54420       40.04689      101.74764
C         91.05096       41.07356      102.75623
O         91.89172       41.82343      103.23299
H         90.64645       38.18150      101.34554
H         92.06096       40.58072      100.92105
H         92.29927       39.41444      102.26417
N         89.74089       41.20573      103.12912
C         89.30174       42.26513      104.03994
C         89.86602       42.12841      105.45458
O         89.73632       43.07827      106.21447
C         87.75469       42.39352      104.07036
C         87.01780       41.16707      104.54712
N         85.67104       41.17620      104.66188
O         87.63000       40.15464      104.82349
H         89.03162       40.58674      102.71867
H         89.68344       43.22453      103.62509
H         87.39336       42.62483      103.04556
H         87.48162       43.24395      104.73157
H         85.12712       42.01888      104.43047
H         85.17129       40.33647      104.98959
N         90.47633       40.98751      105.89053
C         91.05655       40.84179      107.21782
C         90.29560       39.85573      108.07840
O         90.78478       39.53989      109.15384
H         90.52619       40.16515      105.27213
H         91.08978       41.80580      107.77110
H         92.10518       40.49670      107.09210
N         89.06542       39.38473      107.71454
C         88.26560       38.48755      108.53394
C         87.82230       37.25371      107.69732
O         86.79804       37.59929      106.80787
C         87.05153       39.25193      109.15949
C         87.49538       40.38918      110.08690
O         86.16277       39.74143      108.18399
H         88.64659       39.71803      106.84660
H         88.88517       38.10950      109.37770
H         86.47568       38.55434      109.79981
H         86.64369       40.40934      107.63181
H         86.60326       40.86586      110.54672
H         88.13717       39.98941      110.90066
H         88.05993       41.16326      109.52642
N         87.40653       36.15637      108.58784
C         86.54107       35.10937      108.01713
C         85.09474       35.59865      107.87807
O         84.51662       36.06375      108.85037
C         86.66361       33.85088      108.92981
C         88.10953       33.28978      108.80970
C         85.62740       32.77284      108.56926
C         88.41721       32.12105      109.74493
H         87.00984       36.48197      109.49756
H         86.91201       34.81379      107.01568
H         86.46583       34.15534      109.98217
H         88.84008       34.09232      109.04801
H         88.29359       32.96184      107.76199
H         85.69452       31.90935      109.25835
H         84.59938       33.16814      108.69096
H         85.77143       32.42263      107.52932
H         89.47408       31.81077      109.60100
H         88.27690       32.42961      110.80164
H         87.78284       31.23997      109.52366
N         84.43663       35.43959      106.68945
C         83.01760       35.73076      106.48146
C         82.22584       34.44199      106.61476
O         82.82528       33.41016      106.86154
C         82.78861       36.33703      105.07815
C         83.48282       37.65115      104.88565
O         84.69598       37.71930      104.94679
O         82.76974       38.75846      104.60611
H         84.92768       34.95372      105.92869
H         82.64231       36.43022      107.26071
H         81.70310       36.50346      104.91714
H         83.14388       35.62523      104.29976
N         80.86620       34.41865      106.51032
C         80.10223       33.19394      106.72558
C         80.44222       32.09928      105.70827
O         80.79184       31.01927      106.16341
C         78.58182       33.46343      106.79910
C         77.83054       32.19892      107.14896
C         78.04869       31.56127      108.38454
C         76.91814       31.63662      106.24009
C         77.37241       30.38081      108.69976
C         76.24414       30.45371      106.56010
C         76.47200       29.82603      107.78790
H         80.36072       35.30013      106.33474
H         80.38106       32.81862      107.73556
H         78.20425       33.87742      105.85075
H         78.37428       34.22642      107.58017
H         78.74279       31.97489      109.10505
H         76.73591       32.10583      105.28122
H         77.54934       29.89574      109.65105
H         75.54727       30.02120      105.85436
H         75.95161       28.90966      108.03332
N         80.38111       32.26132      104.34376
C         80.72529       31.21245      103.38240
C         82.05357       30.54878      103.67945
O         82.15872       29.33121      103.64642
C         80.84934       31.97342      102.05107
C         79.82002       33.05809      102.21549
C         80.06225       33.49967      103.65557
H         79.89885       30.46850      103.33736
H         81.83042       32.49998      101.99055
H         80.74647       31.33779      101.14574
H         79.86870       33.87752      101.46691
H         78.81866       32.57391      102.15716
H         80.93366       34.18536      103.74166
H         79.14499       34.00226      103.99654
N         83.11489       31.33756      103.98312
C         84.47200       30.87041      104.22186
C         84.48917       29.91311      105.40276
O         84.95291       28.79186      105.25243
C         85.40136       32.08780      104.45701
C         85.38111       33.07883      103.26312
C         86.18155       34.32030      103.51078
O         86.98343       34.43091      104.58262
O         86.06392       35.26726      102.75122
H         82.92051       32.34390      104.05966
H         84.84659       30.34226      103.31633
H         86.44148       31.73571      104.63276
H         85.05412       32.62850      105.36047
H         84.35549       33.44162      103.07464
H         85.72925       32.58843      102.33014
N         83.94615       30.28184      106.59610
C         83.85817       29.42129      107.75703
H         82.78788       29.27229      108.01708
H         84.32143       28.42855      107.58575
H         84.36282       29.90840      108.61637
H         83.53669       31.21464      106.68384
Ca        87.43389       37.49871      104.60221
O         89.81638       35.20209      105.94968
H         89.23433       34.41497      105.80859
H         90.72458       34.81872      106.03622

Ca 1.0



