%chk=holoCaM.loop4.water2.frame95.chk
%nprocshared=20
%mem=10GB
%nosave
#b3lyp/svp scf=(tight,noincore,xqc) Test 
#IOP(5/87=12) Density=Current Pop=(MK,readradii) iop(6/33=2) iop(6/42=6)

holoCaM.loop4.water2.frame95 

   -3  1 
C         82.14955       18.53606       54.85258
C         81.07984       17.92154       53.99867
O         81.34116       17.64231       52.83856
H         83.08680       18.67763       54.27093
H         81.81735       19.50925       55.26246
H         82.37566       17.84116       55.69190
N         79.87031       17.60245       54.54404
C         78.90260       16.74390       53.87185
C         77.46022       17.25632       53.96167
O         76.99063       17.54542       55.05298
C         79.03083       15.36852       54.53941
C         78.16940       14.34358       53.89018
O         78.31415       14.08679       52.70567
O         77.24548       13.69181       54.62068
H         79.71372       17.82021       55.54055
H         79.17642       16.60708       52.80327
H         78.77620       15.44444       55.61837
H         80.08496       15.02337       54.45308
N         76.67884       17.29611       52.83818
C         75.26234       17.65687       52.78704
C         74.38364       16.48627       52.29629
O         73.18337       16.68935       52.17891
C         75.04820       18.89279       51.83915
C         75.30175       18.55122       50.33844
C         75.90505       20.08375       52.30130
C         74.98714       19.69134       49.36702
H         77.10253       17.01892       51.95739
H         74.91060       17.93924       53.80357
H         73.98082       19.19655       51.92952
H         74.64137       17.71283       50.04220
H         76.34795       18.23461       50.17594
H         75.67078       20.99490       51.71380
H         75.69291       20.31778       53.36492
H         76.98676       19.85949       52.18816
H         73.93513       20.02650       49.48829
H         75.67311       20.54941       49.51245
H         75.12145       19.33065       48.32420
N         74.90163       15.26793       51.93153
C         74.12557       14.28083       51.16034
C         74.57910       12.80603       51.29261
O         73.91799       11.95573       50.71111
C         74.10828       14.69671       49.66600
C         75.48159       14.80510       49.05286
O         76.58145       14.69917       49.81778
O         75.60059       14.99380       47.85337
H         75.91219       15.13733       52.01804
H         73.07497       14.28862       51.52560
H         73.59658       15.67280       49.54064
H         73.52258       13.94261       49.09677
N         75.63561       12.41081       52.05617
C         75.99885       11.01966       52.32380
C         76.57259       10.19352       51.17379
O         76.84519        9.02629       51.41676
H         76.14814       13.11801       52.57390
H         75.10468       10.49917       52.72932
H         76.77347       11.01379       53.12253
N         76.79123       10.68346       49.91945
C         77.29826        9.85504       48.80645
C         78.76725        9.39723       48.93952
O         79.23897        8.73301       48.02629
C         77.06231       10.58424       47.45754
C         77.78886       11.88507       47.34309
O         78.66389       12.23879       48.28891
O         77.51430       12.66723       46.44820
H         76.52262       11.65971       49.73082
H         76.66752        8.94067       48.74610
H         75.97384       10.80566       47.39735
H         77.32744        9.93967       46.59286
N         79.54149        9.66889       50.03391
C         80.91028        9.18095       50.20191
C         81.98292        9.97844       49.46391
O         83.14585        9.63206       49.60108
H         79.12507       10.16074       50.83078
H         80.95971        8.10270       49.92889
H         81.17262        9.25203       51.27947
N         81.67782       11.05202       48.68114
C         82.65472       11.87591       47.96173
C         82.46140       13.36492       48.27235
O         81.54011       13.70755       48.99536
C         82.52640       11.61011       46.44654
C         81.11781       11.89869       45.89087
C         80.99875       11.66073       44.40818
N         79.80813       11.85291       43.79636
O         81.96231       11.29172       43.75232
H         80.69718       11.28946       48.57100
H         83.68775       11.59694       48.26335
H         82.76903       10.54095       46.25798
H         83.27363       12.22752       45.90372
H         80.84196       12.95456       46.09934
H         80.38505       11.22783       46.38251
H         78.98536       12.15974       44.33468
H         79.70548       11.69231       42.78409
N         83.31848       14.30568       47.75522
C         83.19961       15.74546       48.00957
C         83.12295       16.53052       46.68621
O         84.06169       16.51513       45.90530
C         84.38994       16.21983       48.89440
C         84.39160       17.74221       49.10452
C         84.33659       15.54508       50.27637
H         84.11497       13.98694       47.18610
H         82.27397       15.95491       48.59046
H         85.34507       15.94335       48.39676
H         85.24725       18.04318       49.74571
H         84.51449       18.26850       48.13935
H         83.45016       18.07452       49.58927
H         83.40677       15.83624       50.80946
H         84.36641       14.44002       50.18872
H         85.20140       15.86305       50.89666
N         82.00365       17.26249       46.40981
C         81.77634       18.15176       45.26207
C         82.56002       19.45111       45.44526
O         83.21155       19.58664       46.46513
C         80.24770       18.44685       45.21059
C         79.77528       19.29864       44.06162
N         79.95575       18.90258       42.78135
O         79.20280       20.35346       44.29223
H         81.25428       17.19492       47.09096
H         82.07271       17.62915       44.32785
H         79.94569       18.93503       46.16485
H         79.70601       17.47807       45.14341
H         80.42646       18.01263       42.56548
H         79.62106       19.49015       42.00324
N         82.55576       20.46352       44.52385
C         83.24234       21.72729       44.78924
C         82.57089       22.48685       45.93168
O         83.25236       22.86792       46.87222
C         83.43100       22.62984       43.54092
C         82.26308       23.48130       43.08008
C         82.35182       24.88192       43.21605
C         81.11081       22.93043       42.49499
C         81.31447       25.70981       42.78856
C         80.07239       23.76583       42.05974
C         80.16925       25.15513       42.20762
O         79.16041       25.94610       41.78926
H         82.08836       20.32588       43.62016
H         84.28949       21.47245       45.07507
H         83.83249       22.03424       42.69324
H         84.24532       23.33286       43.82794
H         83.22793       25.34199       43.65714
H         81.01246       21.86390       42.36313
H         81.40605       26.78277       42.90746
H         79.18848       23.33356       41.60906
H         79.19409       26.91015       41.87664
N         81.22206       22.71662       45.91595
C         80.50076       23.44831       46.95997
C         80.72533       22.82609       48.31990
O         81.10125       23.54192       49.23781
C         78.97994       23.51825       46.68181
C         78.65722       24.30511       45.40375
C         77.18138       24.53754       45.25577
O         76.70174       25.79603       45.21748
O         76.41144       23.59519       45.16166
H         80.68238       22.33330       45.12898
H         80.87304       24.49664       46.99531
H         78.50645       24.05547       47.53465
H         78.53721       22.49802       46.62665
H         79.02095       23.75501       44.51732
H         79.16437       25.29334       45.44488
N         80.55956       21.48826       48.50963
C         80.82976       20.82366       49.78256
C         82.22890       21.16832       50.26463
O         82.36831       21.69728       51.35898
C         80.66157       19.29760       49.63076
C         79.18982       18.91750       49.41540
C         79.03179       17.44010       49.25650
O         79.38283       16.88177       48.23811
O         78.47201       16.71638       50.22678
H         80.28449       20.91875       47.69457
H         80.11098       21.18190       50.55429
H         80.99890       18.80044       50.56520
H         81.29482       18.92953       48.79533
H         78.74427       19.41300       48.52753
H         78.62635       19.24357       50.31515
N         83.30621       20.95076       49.47038
C         84.64613       21.34419       49.83991
H         85.35004       21.09065       49.01814
H         84.68177       22.44286       50.00361
H         84.96076       20.81476       50.76232
H         83.16234       20.52330       48.55433
Ca        78.57953       14.30641       48.94263
O         80.16467       12.07115       52.05299
H         81.03249       12.32368       52.45427
H         79.71584       11.52978       52.75034
O         80.91110       14.87428       51.54425
H         80.92876       15.74218       51.06958
H         81.61319       14.94849       52.23835

Ca 1.0



