%chk=holoCaM.loop3.water1.frame143.chk
%nprocshared=20
%mem=10GB
%nosave
#b3lyp/svp scf=(tight,noincore,xqc) Test 
#IOP(5/87=12) Density=Current Pop=(MK,readradii) iop(6/33=2) iop(6/42=6)

holoCaM.loop3.water1.frame143 

   0  1 
C         30.87084       93.53916       -2.83655
C         30.71723       93.09273       -1.41142
O         31.70649       92.80042       -0.75552
H         31.93924       93.56011       -3.13652
H         30.31516       92.85314       -3.50904
H         30.45370       94.56430       -2.94677
N         29.47910       93.06597       -0.85342
C         29.23283       92.74663        0.54892
C         29.46569       91.25574        0.80446
O         28.95446       90.44675        0.04233
C         27.80496       93.20974        0.91458
C         27.64822       93.43691        2.39119
O         27.74763       92.42545        3.25825
O         27.45558       94.56463        2.81544
H         28.68568       93.36432       -1.44423
H         29.91744       93.37298        1.16483
H         27.03288       92.51938        0.51037
H         27.64120       94.20659        0.44578
N         30.21722       90.82177        1.86144
C         30.56613       89.41234        2.09856
C         29.70194       88.73884        3.16108
O         29.73991       87.51970        3.25315
C         32.05676       89.30381        2.47996
C         33.01520       89.78884        1.38156
C         33.05121       88.81626        0.19538
C         34.07103       89.25527       -0.85927
N         34.16447       88.26093       -1.92791
H         30.55479       91.52800        2.52556
H         30.35618       88.82673        1.17961
H         32.32295       88.25760        2.74661
H         32.21936       89.92446        3.38726
H         34.03629       89.82870        1.82003
H         32.74580       90.81637        1.05276
H         32.05311       88.74119       -0.28359
H         33.34248       87.81251        0.57630
H         35.07172       89.37152       -0.38657
H         33.76514       90.23681       -1.28527
H         34.48701       87.34608       -1.53501
H         33.23431       88.13565       -2.38926
H         34.85887       88.58409       -2.63901
N         28.85437       89.45087        3.94408
C         27.80371       88.87314        4.77981
C         26.43292       89.31638        4.25144
O         25.43115       88.99014        4.87320
C         28.03312       89.21022        6.27585
C         28.46746       90.62426        6.50136
O         29.56108       90.84488        6.99813
O         27.73997       91.65293        6.04919
H         28.89787       90.47319        3.89596
H         27.78917       87.76228        4.72145
H         28.85663       88.56086        6.64914
H         27.12887       88.96745        6.87422
N         26.30626       89.97888        3.05708
C         25.04027       90.31055        2.42543
C         24.19474       91.35862        3.12473
O         23.11077       91.61369        2.61860
H         27.13882       90.17846        2.48864
H         24.44612       89.37534        2.32452
H         25.24380       90.68695        1.39914
N         24.55994       91.97697        4.28802
C         23.60286       92.79634        5.03596
C         23.35368       94.18379        4.45114
O         22.39557       94.81741        4.87224
C         23.97683       92.85726        6.53246
C         25.11507       93.79171        6.86496
N         24.97341       94.72072        7.83801
O         26.17624       93.70270        6.27400
H         25.45672       91.73031        4.72488
H         22.64295       92.23278        5.00934
H         24.24001       91.82802        6.86126
H         23.08364       93.16905        7.11420
H         24.09330       94.80709        8.36600
H         25.75705       95.33957        8.08680
N         24.19187       94.74723        3.53297
C         23.98810       96.07359        2.96297
C         24.99697       97.10043        3.45097
O         24.95054       98.21824        2.95976
H         25.02899       94.23018        3.23589
H         22.98174       96.47485        3.21206
H         24.04183       95.98702        1.85595
N         25.89053       96.82594        4.44933
C         26.81636       97.81181        5.00241
C         28.24271       97.30106        4.91550
O         28.50312       96.19159        5.35046
C         26.49067       98.11382        6.47632
C         25.13099       98.74725        6.66061
C         23.95743       97.97370        6.62697
C         25.03080      100.13072        6.88679
C         22.70912       98.57527        6.82435
C         23.78305      100.73135        7.06865
C         22.61702       99.95451        7.04308
O         21.40771      100.52151        7.22866
H         25.89195       95.89273        4.87939
H         26.74336       98.78360        4.46509
H         27.26409       98.83415        6.82508
H         26.58468       97.21812        7.12206
H         24.00635       96.90533        6.46529
H         25.91927      100.74927        6.91122
H         21.81211       97.96870        6.81003
H         23.72553      101.80019        7.23225
H         21.30396      101.47158        7.38387
N         29.23089       98.09383        4.41087
C         30.62772       97.68433        4.29046
C         31.51399       98.49767        5.22630
O         31.42898       99.71585        5.26001
C         31.06884       97.77172        2.79578
C         30.41739       96.58766        2.02899
C         32.60371       97.74520        2.64175
C         30.70573       96.55989        0.52946
H         28.98876       99.04730        4.10155
H         30.76130       96.62935        4.59882
H         30.72622       98.74253        2.37303
H         29.31533       96.62958        2.15872
H         30.77819       95.62735        2.46065
H         33.03003       96.81271        3.06386
H         32.90805       97.84602        1.58198
H         33.05326       98.62281        3.15097
H         30.33883       97.48970        0.04984
H         31.78742       96.42922        0.32381
H         30.18264       95.69233        0.07781
N         32.48594       97.83941        5.92929
C         33.50342       98.47684        6.75908
C         34.82716       98.50361        6.00712
O         34.87614       98.04963        4.88080
C         33.63982       97.69578        8.08273
O         34.08121       96.38022        7.85228
H         32.57972       96.82520        5.78351
H         33.22288       99.52827        6.98111
H         32.67168       97.69582        8.63396
H         34.37603       98.18727        8.75164
H         33.27809       95.79798        7.80857
N         35.94663       99.05069        6.55930
C         37.23143       99.08338        5.85968
C         37.75807       97.68151        5.60751
O         38.07246       97.35901        4.46925
C         38.26176       99.87251        6.67208
H         35.87916       99.46705        7.49893
H         37.11108       99.61895        4.89059
H         38.43913       99.40195        7.66165
H         39.22380       99.91898        6.11646
H         37.90024      100.91122        6.82611
N         37.86912       96.79244        6.63474
C         38.39164       95.43532        6.49334
C         37.65361       94.66462        5.41866
O         38.29304       94.13214        4.52282
C         38.28128       94.69103        7.83097
H         37.55063       97.09870        7.56806
H         39.46954       95.48289        6.22027
H         38.85532       95.23033        8.61419
H         37.22099       94.61955        8.15781
H         38.69546       93.66439        7.73784
N         36.29586       94.59616        5.43455
C         35.50914       93.89023        4.42910
C         35.83957       94.38626        3.03165
O         36.21008       93.58127        2.18799
C         34.01478       94.03491        4.77883
C         33.09921       93.24961        3.84064
C         31.74305       93.09750        4.46287
O         31.36054       91.98347        4.78142
O         30.94379       94.14967        4.71543
H         35.80120       95.08777        6.19464
H         35.75658       92.80557        4.48164
H         33.70460       95.09965        4.80109
H         33.89798       93.61709        5.80492
H         33.52128       92.22999        3.70587
H         33.03267       93.73511        2.84236
N         35.78066       95.70768        2.73276
C         36.15165       96.23639        1.44014
H         37.20510       95.96668        1.21017
H         35.47968       95.83169        0.65580
H         36.06911       97.34463        1.45060
H         35.49804       96.36436        3.46175
Ca        29.05948       93.44316        5.72397
O         29.36073       94.92285        8.31232
H         28.49247       94.52225        8.56983
H         29.12661       95.82034        7.96629

Ca 1.0



