%chk=holoCaM.loop4.water3.frame208.chk
%nprocshared=20
%mem=10GB
%nosave
#b3lyp/svp scf=(tight,noincore,xqc) Test 
#IOP(5/87=12) Density=Current Pop=(MK,readradii) iop(6/33=2) iop(6/42=6)

holoCaM.loop4.water3.frame208 

   -3  1 
C         20.55235       71.18600       57.85930
C         21.72900       70.70278       58.63879
O         21.62484       69.63762       59.22846
H         19.68554       71.31102       58.53855
H         20.77671       72.14657       57.35501
H         20.30368       70.42787       57.08416
N         22.90509       71.40011       58.64044
C         24.11650       70.84996       59.21920
C         24.95352       71.90863       59.92560
O         25.21301       72.94583       59.33171
C         24.94838       70.21243       58.08124
C         25.83392       69.12867       58.60038
O         26.61943       68.56418       57.86173
O         25.60977       68.68853       59.84791
H         22.97767       72.25582       58.07241
H         23.81609       70.06460       59.94547
H         25.52397       70.99494       57.54126
H         24.28194       69.70150       57.35640
N         25.45341       71.68773       61.17534
C         26.25924       72.65596       61.91982
C         27.67156       72.10400       62.20152
O         28.57762       72.90090       62.40401
C         25.52331       73.04037       63.24883
C         24.00697       73.28782       63.00227
C         26.16564       74.28684       63.89224
C         23.17433       73.44370       64.27805
H         25.22758       70.79995       61.62517
H         26.36879       73.57645       61.30419
H         25.60652       72.17367       63.94325
H         23.57487       72.40821       62.49443
H         23.86128       74.16637       62.33932
H         26.05974       75.16060       63.21158
H         25.68519       74.53836       64.85833
H         27.24068       74.13259       64.10462
H         23.46123       74.34431       64.85370
H         22.10270       73.54431       64.00103
H         23.27853       72.54182       64.91994
N         27.91707       70.75546       62.27919
C         29.21002       70.15597       62.62306
C         29.74475       69.20303       61.54133
O         30.84593       68.70000       61.71901
C         29.10376       69.44844       64.00338
C         28.13631       68.29615       64.08173
O         27.44513       67.89983       63.01265
O         27.96675       67.71390       65.13824
H         27.13907       70.10767       62.13928
H         29.97491       70.95605       62.74181
H         28.79101       70.20488       64.75535
H         30.10140       69.05965       64.29965
N         29.05901       68.92821       60.38877
C         29.60544       68.11841       59.29978
C         29.82801       66.63662       59.58790
O         30.37390       65.97470       58.71644
H         28.14888       69.37630       60.22447
H         30.57332       68.56938       58.99178
H         28.93422       68.17932       58.42273
N         29.47574       66.04162       60.76371
C         29.84431       64.66052       61.10652
C         29.15144       63.53861       60.30310
O         29.47335       62.38380       60.54817
C         29.62435       64.40962       62.61782
C         28.18975       64.43686       63.05803
O         27.30700       64.78687       62.29802
O         27.87535       64.07313       64.31412
H         29.02696       66.62078       61.48352
H         30.94049       64.56819       60.94045
H         30.17995       65.16488       63.21476
H         30.03725       63.40970       62.86492
N         28.20583       63.77587       59.35213
C         27.55406       62.72403       58.57024
C         26.26594       62.17460       59.17884
O         25.64824       61.33265       58.54264
H         28.00297       64.74504       59.10956
H         28.27404       61.90858       58.33983
H         27.25425       63.16363       57.59467
N         25.78693       62.60535       60.38020
C         24.51263       62.19328       60.97523
C         23.66281       63.43117       61.28237
O         24.12727       64.53437       61.03158
C         24.78844       61.36131       62.24565
C         25.58596       60.08924       61.89699
C         25.77034       59.17601       63.08066
N         26.43186       59.58815       64.18626
O         25.32749       58.03778       63.03257
H         26.34777       63.27030       60.90893
H         23.93602       61.55488       60.26961
H         23.82261       61.05642       62.70237
H         25.34994       61.97425       62.98508
H         26.58702       60.36450       61.50108
H         25.04009       59.53167       61.10332
H         26.81931       60.54018       64.24796
H         26.55887       58.94795       64.98444
N         22.40331       63.33105       61.81545
C         21.55446       64.49814       62.08560
C         21.27301       64.60072       63.58087
O         20.76167       63.65799       64.16833
C         20.23091       64.44359       61.27515
C         19.42580       65.74623       61.46502
C         20.49904       64.24928       59.77457
H         22.02186       62.39680       62.02647
H         22.07255       65.42079       61.75771
H         19.61866       63.58575       61.62921
H         19.18343       65.92103       62.53331
H         20.00469       66.61811       61.08855
H         18.46777       65.69858       60.90597
H         19.53809       64.21685       59.21732
H         21.11501       65.08130       59.37120
H         21.02653       63.29028       59.59157
N         21.58363       65.74600       64.25073
C         21.46757       65.93011       65.69304
C         20.11834       66.50458       66.08332
O         19.31144       66.79372       65.22273
C         22.61869       66.87468       66.12740
C         22.78792       67.07521       67.60626
N         22.98785       66.01469       68.41848
O         22.76246       68.20301       68.07608
H         22.00314       66.51086       63.71622
H         21.58840       64.94548       66.19096
H         22.49795       67.86358       65.62599
H         23.55773       66.42185       65.78019
H         23.00513       65.05662       68.04156
H         23.11609       66.15335       69.42818
N         19.80950       66.66764       67.39760
C         18.58931       67.28402       67.91350
C         18.57527       68.81011       67.75973
O         17.51823       69.39736       67.94560
C         18.34960       66.79444       69.36556
C         19.53269       66.96553       70.30574
C         19.83712       68.20356       70.89208
C         20.34856       65.85301       70.60328
C         20.92620       68.32043       71.76867
C         21.44239       65.97697       71.46075
C         21.73257       67.20641       72.05282
O         22.78387       67.30184       72.89223
H         20.47588       66.28365       68.06795
H         17.73153       66.89644       67.31717
H         18.16854       65.70134       69.26140
H         17.42415       67.21450       69.81346
H         19.22408       69.07074       70.68695
H         20.15326       64.88770       70.15112
H         21.14311       69.27557       72.22865
H         22.06818       65.11460       71.66048
H         23.01023       68.12536       73.34648
N         19.68406       69.51119       67.37424
C         19.65794       70.91964       66.96886
C         19.36552       71.04224       65.48055
O         18.96619       72.10891       65.03562
C         21.03895       71.57582       67.21322
C         21.38618       71.72246       68.69678
C         20.42453       72.65366       69.37838
O         20.31818       73.81095       69.00208
O         19.66376       72.21185       70.39650
H         20.55811       68.99593       67.22074
H         18.86049       71.46747       67.51855
H         21.07280       72.58788       66.75113
H         21.82377       70.96321       66.71185
H         22.41096       72.14507       68.78872
H         21.37717       70.72612       69.18808
N         19.63875       70.01113       64.64150
C         19.55912       70.07288       63.18907
C         18.17879       69.66873       62.70793
O         17.65247       70.32184       61.81852
C         20.66607       69.16434       62.60657
C         22.05309       69.75866       62.93904
C         23.21178       68.85984       62.62478
O         24.33057       69.17182       62.99299
O         23.03840       67.69486       61.98698
H         20.06081       69.16522       65.04307
H         19.77593       71.09876       62.81409
H         20.56620       69.06934       61.50669
H         20.55896       68.15259       63.04931
H         22.11429       69.97834       64.02426
H         22.17148       70.70882       62.37917
N         17.51914       68.61461       63.25758
C         16.22128       68.17178       62.80417
H         15.48232       68.99546       62.88807
H         16.29277       67.82822       61.75143
H         15.87629       67.31966       63.43040
H         17.93608       68.11543       64.04184
Ca        26.27807       67.18410       61.29620
O         25.32130       66.19972       64.15272
H         25.69404       66.50115       65.01860
H         25.65459       65.27592       64.05977
O         25.85786       65.75240       58.89433
H         25.50415       65.23271       58.13270
H         26.60561       66.27194       58.51204
O         23.48269       66.87605       59.51862
H         23.12673       67.72633       59.16910
H         23.34227       66.22977       58.78595

Ca 1.0



