%chk=holoCaM-CaMKII.loop2.water1.frame281.chk
%nprocshared=20
%mem=10GB
%nosave
#b3lyp/svp scf=(tight,noincore,xqc) Test 
#IOP(5/87=12) Density=Current Pop=(MK,readradii) iop(6/33=2) iop(6/42=6)

holoCaM-CaMKII.loop2.water1.frame281 

   -2  1 
C         36.02403       47.85790       65.32866
C         37.10930       48.74106       64.78775
O         37.45482       49.73173       65.41552
H         35.18161       47.83359       64.60309
H         36.41052       46.82659       65.46398
H         35.64304       48.23778       66.29942
N         37.67232       48.43978       63.58600
C         38.67106       49.26929       62.91375
C         38.05621       50.64841       62.70303
O         37.03338       50.73614       62.03786
C         39.03206       48.56399       61.57542
C         40.03067       49.14069       60.59923
O         40.01247       48.70527       59.46063
O         41.01501       49.99731       60.92330
H         37.33614       47.58562       63.11297
H         39.56734       49.32755       63.56001
H         38.07864       48.48178       61.01070
H         39.36785       47.52550       61.79119
N         38.59059       51.75929       63.29065
C         37.96444       53.07894       63.23645
C         38.69621       54.02429       62.30556
O         38.19636       55.12030       62.09146
C         37.88846       53.68027       64.64840
H         39.46936       51.66542       63.81053
H         36.93035       52.98902       62.83927
H         37.32553       53.01027       65.33126
H         38.91084       53.82867       65.06150
H         37.37795       54.66785       64.62773
N         39.86528       53.67350       61.69901
C         40.56042       54.52326       60.74001
C         40.71117       53.83898       59.38133
O         41.24926       54.46175       58.47658
C         41.91883       54.94692       61.33091
C         42.78710       53.77837       61.70048
O         43.17215       53.59826       62.97845
O         43.14160       52.98575       60.84729
H         40.29767       52.76634       61.92207
H         39.98502       55.45617       60.55400
H         41.72765       55.54684       62.24736
H         42.45948       55.59381       60.60739
N         40.25181       52.57449       59.15102
C         40.35007       51.90280       57.86824
C         41.77902       51.68766       57.41938
O         42.10941       52.06480       56.30467
H         39.78007       52.04977       59.89941
H         39.77898       52.46978       57.10151
H         39.87562       50.90164       57.96066
N         42.66640       51.04020       58.22580
C         44.00908       50.63621       57.81896
C         44.15746       49.10991       57.86861
O         45.25741       48.61637       57.66220
C         45.08516       51.37096       58.65327
C         45.15166       51.05727       60.12851
N         46.09024       51.66464       60.89109
O         44.37230       50.27248       60.64464
H         42.36071       50.77921       59.16805
H         44.20100       50.94253       56.76698
H         44.92637       52.46612       58.53655
H         46.07977       51.12914       58.22018
H         46.75472       52.33261       60.47326
H         46.15613       51.47204       61.90006
N         43.07263       48.29781       58.06110
C         43.10920       46.84487       58.00125
C         43.58604       46.14665       59.26356
O         43.54967       44.92564       59.26946
H         42.13737       48.71756       58.12542
H         43.69324       46.51758       57.11354
H         42.06542       46.49165       57.85021
N         44.02737       46.81944       60.36602
C         44.44638       46.15262       61.60493
C         43.67084       46.68902       62.80766
O         42.85168       47.58172       62.64877
C         45.97873       46.30342       61.79096
C         46.75509       45.45105       60.77413
O         46.37733       47.65183       61.73763
H         44.08507       47.84355       60.33211
H         44.22291       45.06430       61.56574
H         46.27482       45.90314       62.78256
H         46.43042       47.92460       60.78373
H         46.47901       44.38047       60.89372
H         46.53313       45.76141       59.73200
H         47.84607       45.54834       60.95651
N         43.88533       46.16093       64.05559
C         43.19414       46.60769       65.26456
C         44.20825       47.19946       66.24730
O         45.04505       46.47408       66.76505
C         42.39717       45.41402       65.89717
C         41.25503       44.96520       64.94526
C         41.83545       45.77339       67.28500
C         40.43177       43.77823       65.46394
H         44.57148       45.39998       64.16070
H         42.46291       47.40736       65.01776
H         43.09746       44.56110       66.04629
H         41.69546       44.66332       63.97158
H         40.56097       45.81567       64.76546
H         41.11954       46.61648       67.21947
H         41.33893       44.90199       67.75308
H         42.65449       46.02875       67.98051
H         39.67420       43.49197       64.70486
H         41.08708       42.90449       65.66341
H         39.87300       44.03826       66.38664
N         44.15894       48.53107       66.55951
C         44.98233       49.18034       67.58522
C         44.54753       48.74058       68.97796
O         43.60192       47.98092       69.09067
C         44.80182       50.71629       67.51126
C         45.29292       51.29999       66.22246
O         44.52626       51.89768       65.48424
O         46.59706       51.20931       65.90010
H         43.49006       49.11458       66.04572
H         46.05369       48.93128       67.41948
H         45.38497       51.21355       68.31129
H         43.72492       50.96236       67.65453
N         45.17662       49.20008       70.09899
C         44.72128       48.86211       71.44500
C         43.33003       49.44798       71.73983
O         42.46859       48.65615       72.09317
C         45.75293       49.27583       72.51782
C         45.28736       48.87950       73.89864
C         45.17215       47.52309       74.25052
C         44.94908       49.86494       74.84187
C         44.72903       47.16110       75.52567
C         44.49819       49.49798       76.11294
C         44.39020       48.14752       76.45543
H         46.01009       49.79788       69.99187
H         44.65971       47.75177       71.51228
H         45.94251       50.35702       72.48729
H         46.73194       48.79172       72.31265
H         45.42968       46.74686       73.54083
H         45.01994       50.91587       74.58948
H         44.64661       46.11533       75.79200
H         44.23040       50.26134       76.83171
H         44.04297       47.86546       77.44070
N         43.00544       50.78460       71.62820
C         41.66446       51.32595       71.86736
C         40.57419       50.53454       71.18042
O         39.55249       50.22590       71.77612
C         41.72489       52.72396       71.21925
C         43.14776       53.12446       71.48444
C         43.89380       51.83525       71.16021
H         41.48330       51.40409       72.96144
H         41.64123       52.65193       70.10913
H         40.94675       53.43467       71.56916
H         43.50675       54.01476       70.92411
H         43.23587       53.32399       72.57620
H         44.03589       51.71263       70.06960
H         44.86263       51.89943       71.67333
N         40.76175       50.19187       69.88608
C         39.79822       49.51639       69.03461
C         39.47922       48.13698       69.58102
O         38.30729       47.82039       69.72789
C         40.36407       49.51530       67.60063
C         40.51084       50.99106       67.13127
C         41.15066       51.13938       65.80522
O         41.31167       52.25329       65.33182
O         41.51086       50.06364       65.10338
H         41.67704       50.43886       69.48028
H         38.85022       50.09900       68.99102
H         39.68255       48.97240       66.90941
H         41.35328       49.00508       67.59002
H         41.13370       51.59349       67.81732
H         39.50302       51.45704       67.08555
N         40.47307       47.29957       69.98448
C         40.24308       46.01552       70.61547
H         39.16592       45.75523       70.66948
H         40.77379       45.22128       70.05429
H         40.64784       46.04394       71.65001
H         41.44475       47.60753       69.89562
Ca        41.73038       50.44008       62.95332
O         45.37090       49.68550       63.61012
H         46.33958       49.74448       63.80403
H         45.15140       48.73816       63.77870

Ca 1.0



