%chk=holoCaM-CaMKII.loop3.water2.frame304.chk
%nprocshared=20
%mem=10GB
%nosave
#b3lyp/svp scf=(tight,noincore,xqc) Test 
#IOP(5/87=12) Density=Current Pop=(MK,readradii) iop(6/33=2) iop(6/42=6)

holoCaM-CaMKII.loop3.water2.frame304 

   0  1 
C         40.80238       23.58017       65.85948
C         40.33265       22.30939       66.50309
O         40.87421       21.92765       67.53050
H         41.87351       23.48863       65.58865
H         40.22144       23.80646       64.93971
H         40.66972       24.42348       66.56965
N         39.29416       21.61535       65.96570
C         38.73931       20.41937       66.58144
C         39.73267       19.25763       66.51180
O         40.05191       18.79845       65.42433
C         37.41301       20.08371       65.87965
C         36.63738       18.98151       66.51372
O         37.07148       18.35134       67.61812
O         35.57161       18.66968       66.02402
H         38.84117       21.99543       65.11925
H         38.49607       20.66883       67.64043
H         37.60620       19.82596       64.81586
H         36.76113       20.98571       65.90948
N         40.28348       18.76233       67.65468
C         41.26835       17.67835       67.70393
C         40.66711       16.32285       67.34247
O         41.29176       15.57100       66.60807
C         41.88236       17.62409       69.12441
C         42.95235       16.52350       69.28054
C         43.64652       16.54972       70.65598
C         44.55445       17.77264       70.90575
N         45.70097       17.80864       69.99325
H         40.02221       19.21967       68.54241
H         42.11684       17.90966       67.02078
H         41.08583       17.45895       69.88327
H         42.34294       18.61684       69.31032
H         43.70895       16.59200       68.47275
H         42.44891       15.53796       69.17953
H         44.27439       15.63741       70.75366
H         42.86703       16.50676       71.44758
H         44.93962       17.70327       71.94704
H         43.98186       18.72032       70.83279
H         45.39163       17.93985       69.00485
H         46.31583       18.61445       70.24951
H         46.25679       16.92624       70.07863
N         39.47216       15.94013       67.86732
C         38.87880       14.60478       67.72912
C         37.70264       14.58727       66.75972
O         37.11256       13.52846       66.58999
C         38.46806       14.02247       69.12013
C         37.48836       14.90060       69.85435
O         37.91331       16.10837       70.24560
O         36.34198       14.54443       70.06291
H         38.95386       16.66755       68.36569
H         39.62262       13.90065       67.29607
H         39.36771       13.89713       69.76070
H         38.02365       13.01443       68.96881
N         37.34187       15.68269       66.03103
C         36.29861       15.64416       65.01707
C         34.88728       15.43920       65.54251
O         33.99598       15.32013       64.71349
H         37.88165       16.55247       66.11869
H         36.54176       14.82997       64.30023
H         36.30745       16.59920       64.44901
N         34.58361       15.39163       66.87496
C         33.22302       15.13734       67.36521
C         32.21272       16.22660       66.99878
O         31.03126       16.03226       67.24713
C         33.22833       14.89559       68.89405
C         33.54886       16.12109       69.72609
N         32.72315       16.50978       70.72595
O         34.57229       16.75188       69.51847
H         35.34668       15.48645       67.55741
H         32.89020       14.18652       66.89325
H         33.97825       14.10674       69.11068
H         32.23903       14.49555       69.20376
H         31.86431       15.98412       70.94163
H         32.95787       17.32561       71.30963
N         32.60769       17.40337       66.43871
C         31.72120       18.49217       66.07613
C         31.96580       19.72617       66.92241
O         31.32540       20.73219       66.64912
H         33.59891       17.56327       66.27278
H         30.65295       18.20903       66.19543
H         31.88956       18.73321       65.00412
N         32.80085       19.71384       68.01009
C         32.91925       20.83783       68.93347
C         34.36885       21.25486       69.16131
O         35.28554       20.59015       68.70006
C         32.29935       20.45041       70.29713
C         30.81559       20.15824       70.24725
C         30.30687       19.02148       69.59063
C         29.91930       21.02535       70.89491
C         28.93158       18.77115       69.57006
C         28.54629       20.77316       70.87376
C         28.04693       19.64537       70.20905
O         26.72343       19.39080       70.18312
H         33.30180       18.84957       68.26132
H         32.37715       21.72527       68.53911
H         32.46520       21.29155       71.00204
H         32.82032       19.56759       70.71526
H         30.96588       18.31779       69.10263
H         30.28188       21.90267       71.41586
H         28.55389       17.89342       69.06033
H         27.87308       21.45571       71.37628
H         26.08093       19.97069       70.61663
N         34.62680       22.37920       69.89300
C         35.95337       22.86999       70.25827
C         36.00620       23.04868       71.77325
O         35.15890       23.74765       72.31431
C         36.23016       24.23773       69.55965
C         36.22858       24.06875       68.01753
C         37.57473       24.83518       70.03971
C         36.34284       25.39399       67.25806
H         33.82182       22.94349       70.20732
H         36.74983       22.16229       69.93314
H         35.41691       24.94361       69.84184
H         35.27189       23.60358       67.69976
H         37.05942       23.39596       67.70817
H         37.57233       24.99331       71.13731
H         38.42030       24.16249       69.78013
H         37.75727       25.83525       69.60190
H         36.29037       25.20012       66.16646
H         35.50562       26.06804       67.53899
H         37.30662       25.90390       67.45531
N         37.02989       22.52189       72.50452
C         37.22445       22.77752       73.93150
C         38.46738       23.63403       74.14143
O         39.12013       23.98961       73.17332
C         37.32331       21.44716       74.69534
O         36.14022       20.70979       74.55609
H         37.75129       21.97629       72.01546
H         36.37134       23.35553       74.34943
H         37.52584       21.61318       75.77696
H         38.16896       20.84357       74.30178
H         35.48012       21.10281       75.18545
N         38.82032       24.05709       75.38836
C         39.93638       24.96762       75.64667
C         41.27979       24.37538       75.26129
O         41.98553       24.98286       74.46844
C         39.96729       25.36146       77.12652
H         38.23142       23.76530       76.18359
H         39.77322       25.90380       75.06594
H         40.79390       26.08093       77.31098
H         39.00988       25.85060       77.40447
H         40.11342       24.47097       77.77395
N         41.70219       23.19408       75.79483
C         42.99716       22.58589       75.48732
C         43.18156       22.39861       73.99595
O         44.27745       22.59908       73.49126
C         43.11383       21.22218       76.18138
H         41.06284       22.69668       76.43427
H         43.81533       23.23338       75.87270
H         43.01075       21.34266       77.28067
H         42.32088       20.52966       75.82270
H         44.10529       20.76523       75.97242
N         42.12438       22.02435       73.23262
C         42.18820       21.79434       71.79515
C         42.60692       23.06568       71.08029
O         43.61832       23.04948       70.39243
C         40.82310       21.25306       71.30326
C         40.54350       19.90710       72.00580
C         39.24144       19.24901       71.70177
O         38.28093       19.79870       70.93820
O         39.03769       18.14875       72.18932
H         41.22094       21.90888       73.71298
H         42.94828       21.00729       71.58449
H         40.85460       21.08768       70.20426
H         40.02335       21.98848       71.52596
H         40.55980       20.00571       73.10776
H         41.35168       19.20187       71.71838
N         41.90022       24.21765       71.24081
C         42.27824       25.48698       70.65457
H         43.20197       25.41545       70.04341
H         41.45255       25.85810       70.01327
H         42.45678       26.22213       71.46859
H         41.06478       24.20916       71.83409
Ca        36.92737       18.11725       70.35649
O         35.59754       16.57937       72.58683
H         36.33030       16.17885       73.11839
H         34.93060       16.87089       73.25777
O         35.06154       19.78701       71.98284
H         34.31426       19.56955       72.59416
H         35.85391       19.37632       72.40850

Ca 1.0



