%chk=holoCaM-CaMKII.loop1.water2.frame312.chk
%nprocshared=20
%mem=10GB
%nosave
#b3lyp/svp scf=(tight,noincore,xqc) Test 
#IOP(5/87=12) Density=Current Pop=(MK,readradii) iop(6/33=2) iop(6/42=6)

holoCaM-CaMKII.loop1.water2.frame312 

   0  1 
C         55.83668        8.73065       42.58728
C         56.17131        7.30308       42.90075
O         55.43002        6.43000       42.49112
H         54.84570        8.98174       43.01758
H         56.59179        9.42841       43.00760
H         55.80859        8.86703       41.48607
N         57.29915        7.00321       43.59857
C         57.76650        5.65885       43.94099
C         56.85376        5.01246       45.00021
O         57.18856        5.00450       46.17660
C         59.23667        5.81586       44.39979
C         59.98750        4.56276       44.67887
O         59.40773        3.36465       44.62588
O         61.12796        4.64532       45.09611
H         57.89749        7.80078       43.86717
H         57.80016        5.02221       43.02760
H         59.26529        6.43605       45.32179
H         59.80105        6.34144       43.59970
N         55.67033        4.44795       44.62416
C         54.66682        3.87382       45.52165
C         55.23265        2.72968       46.35947
O         55.14012        2.78590       47.57780
C         53.45188        3.40384       44.66435
C         52.22963        2.87762       45.44536
C         51.62151        3.87938       46.44394
C         51.10874        5.17323       45.78595
N         50.61749        6.10814       46.79732
H         55.45443        4.44174       43.62305
H         54.31439        4.68239       46.19771
H         53.77928        2.60350       43.96678
H         53.11805        4.24991       44.02670
H         52.52422        1.96140       45.99937
H         51.44597        2.58596       44.70987
H         52.37789        4.12466       47.21603
H         50.76833        3.38527       46.95890
H         50.29064        4.93072       45.07051
H         51.92510        5.67472       45.22664
H         49.82348        5.68637       47.33070
H         51.39338        6.35529       47.45465
H         50.28946        6.98232       46.32654
N         55.81188        1.64954       45.76228
C         56.30056        0.47073       46.48872
C         57.71083        0.62143       47.07249
O         58.15361       -0.29509       47.75099
C         56.15835       -0.80845       45.62177
C         56.88185       -0.81017       44.29593
O         57.54192        0.27124       43.85848
O         56.78943       -1.78060       43.56475
H         55.83093        1.64885       44.73694
H         55.62661        0.29839       47.35865
H         55.07753       -0.94544       45.39484
H         56.48927       -1.68697       46.21631
N         58.45390        1.74951       46.90431
C         59.73938        1.98154       47.55732
C         60.85021        1.03202       47.14202
O         61.40336        0.36056       48.00080
H         58.05718        2.51900       46.35486
H         59.59361        1.92809       48.65801
H         60.07971        3.01286       47.32043
N         61.26357        0.96879       45.84647
C         62.38975        0.16677       45.36635
C         63.45768        1.03872       44.68468
O         64.37006        0.49551       44.07745
C         61.85421       -0.95133       44.44557
C         61.17223       -0.49659       43.18562
O         60.67579       -1.32927       42.44570
O         61.10950        0.80371       42.85055
H         60.75633        1.52929       45.15610
H         62.89049       -0.35928       46.20818
H         61.12450       -1.54869       45.03531
H         62.69075       -1.62435       44.15838
N         63.42352        2.40059       44.78177
C         64.37127        3.31353       44.15908
C         64.26524        3.30511       42.65299
O         65.28570        3.19402       41.99844
H         62.70026        2.83703       45.36287
H         65.40970        3.09216       44.49286
H         64.12506        4.34531       44.49127
N         63.05165        3.45935       42.04980
C         62.79584        3.45797       40.60186
C         61.31895        3.75230       40.34278
O         60.46001        3.16299       40.98296
C         63.14137        2.11973       39.87143
C         64.59852        1.93504       39.42139
O         62.69347        1.00219       40.58847
H         62.24426        3.58730       42.67969
H         63.37866        4.26878       40.11259
H         62.60152        2.14381       38.89705
H         63.28052        0.91323       41.38408
H         65.30354        1.76186       40.24685
H         64.66512        1.03540       38.77394
H         64.92301        2.81307       38.82130
N         60.96543        4.60179       39.33615
C         59.58877        4.93533       38.98247
C         59.27328        4.31037       37.62526
O         60.07230        4.44060       36.70816
C         59.41024        6.48343       38.92932
C         59.88214        7.16508       40.24095
C         57.93288        6.83723       38.64535
C         59.97767        8.68969       40.11241
H         61.71370        5.01659       38.75936
H         58.87900        4.54013       39.74280
H         60.04784        6.86472       38.10059
H         60.90724        6.82246       40.49416
H         59.21026        6.89077       41.08349
H         57.77798        7.92804       38.54254
H         57.59347        6.38657       37.69485
H         57.28081        6.46283       39.46546
H         60.68641        8.95479       39.29724
H         58.99601        9.15712       39.90305
H         60.36205        9.12076       41.06001
N         58.08535        3.67376       37.41500
C         57.68366        3.09111       36.13302
C         56.70392        4.00702       35.42144
O         56.32668        5.02829       35.96302
C         57.00554        1.70043       36.34568
C         57.94889        0.62706       36.88709
O         55.86594        1.81290       37.16091
H         57.39566        3.69294       38.17453
H         58.56182        2.98071       35.46139
H         56.65565        1.30744       35.36881
H         56.15381        1.79732       38.10924
H         57.38413       -0.32454       37.00779
H         58.78187        0.45816       36.17555
H         58.35112        0.92885       37.87150
N         56.23769        3.67876       34.18598
C         55.13757        4.38078       33.51969
C         53.86963        4.30444       34.36312
O         53.24805        5.33478       34.58257
C         54.86281        3.81897       32.08021
C         55.57227        4.66842       31.02199
O         55.26077        2.47903       31.92103
H         56.65376        2.85168       33.73763
H         55.37427        5.46456       33.41604
H         53.78358        3.91397       31.82036
H         54.68600        1.92243       32.50264
H         56.66654        4.70751       31.19793
H         55.37557        4.25830       30.00813
H         55.16378        5.70399       31.04785
N         53.43259        3.12074       34.87322
C         52.19652        2.96959       35.64359
C         52.17011        3.88138       36.86468
O         51.24704        4.67286       36.99609
C         52.03501        1.48728       36.03682
C         50.70549        1.18814       36.73898
C         50.54151       -0.32406       36.93229
C         49.20483       -0.66104       37.60084
N         49.02273       -2.10942       37.69270
H         54.00928        2.28363       34.69859
H         51.34005        3.23766       34.98464
H         52.88090        1.16225       36.68311
H         52.07012        0.89264       35.09687
H         49.86953        1.55728       36.10544
H         50.66917        1.70725       37.72184
H         51.37582       -0.71969       37.55287
H         50.57596       -0.81573       35.93491
H         48.36992       -0.23010       37.00443
H         49.17807       -0.21481       38.61968
H         48.99166       -2.52540       36.73294
H         49.80466       -2.54049       38.23713
H         48.11790       -2.31163       38.17545
N         53.17754        3.84272       37.77620
C         53.27402        4.71842       38.94497
C         53.20067        6.17758       38.52844
O         52.40606        6.91835       39.08982
C         54.60132        4.45356       39.69159
C         54.61854        3.06334       40.35122
C         55.92259        2.77853       41.03575
O         56.96841        2.76640       40.40970
O         55.93600        2.47464       42.34162
H         53.94127        3.18294       37.59298
H         52.43666        4.51993       39.65114
H         54.73159        5.20948       40.48888
H         55.44574        4.56230       38.97860
H         54.44654        2.26713       39.60239
H         53.79888        3.00981       41.10070
N         53.97885        6.64066       37.51690
C         53.96664        8.00203       37.02821
H         53.29257        8.65628       37.61768
H         54.99643        8.41395       37.07458
H         53.63032        8.00534       35.96930
H         54.58932        5.97837       37.04022
Ca        58.63978        2.02636       43.03569
O         56.91554       -0.23352       40.70698
H         57.45074       -0.89080       41.21722
H         56.69710       -0.69696       39.86047
O         59.63980        0.44113       39.96182
H         60.48185        0.67003       39.49818
H         59.74372       -0.51159       40.20496

Ca 1.0



