%chk=holoCaM-CaMKII.loop3.water2.frame335.chk
%nprocshared=20
%mem=10GB
%nosave
#b3lyp/svp scf=(tight,noincore,xqc) Test 
#IOP(5/87=12) Density=Current Pop=(MK,readradii) iop(6/33=2) iop(6/42=6)

holoCaM-CaMKII.loop3.water2.frame335 

   0  1 
C         30.36990       57.56283       61.42290
C         29.28023       56.73596       62.03442
O         28.13557       57.16635       62.01575
H         31.35489       57.05665       61.50034
H         30.14301       57.73508       60.35004
H         30.42973       58.53958       61.94647
N         29.55840       55.52295       62.59000
C         28.52676       54.67935       63.17738
C         27.91651       55.39215       64.37501
O         28.61979       55.64793       65.34305
C         29.13236       53.31661       63.56053
C         28.12768       52.28817       63.97660
O         26.93248       52.53318       64.02128
O         28.56549       51.05517       64.26928
H         30.53256       55.18237       62.56781
H         27.75794       54.49787       62.39234
H         29.88483       53.44734       64.36865
H         29.65439       52.90063       62.67209
N         26.62671       55.82725       64.32437
C         26.03864       56.69249       65.34230
C         25.85940       55.94934       66.66220
O         26.57767       56.23909       67.60847
C         24.71965       57.28064       64.78834
C         24.06788       58.35478       65.65959
C         22.76856       58.82043       64.98318
C         22.09956       59.96669       65.74480
N         20.85123       60.35901       65.08925
H         26.08991       55.63107       63.46726
H         26.73995       57.54458       65.49134
H         23.98828       56.47100       64.60543
H         24.94410       57.74492       63.80179
H         24.77149       59.20923       65.76394
H         23.83550       57.94896       66.66789
H         22.06548       57.95968       64.92194
H         22.99021       59.16778       63.94928
H         22.79053       60.83853       65.77347
H         21.88305       59.64993       66.78856
H         20.42590       61.15980       65.60908
H         21.03665       60.65573       64.10317
H         20.17832       59.55785       65.09231
N         24.89780       54.99321       66.80161
C         24.68029       54.22690       68.02970
C         25.78535       53.19389       68.29644
O         25.75514       52.58937       69.35986
C         23.29551       53.52233       67.99246
C         23.16001       52.56349       66.84458
O         22.15148       51.89029       66.70895
O         24.16432       52.45809       65.96300
H         24.25591       54.84836       66.01565
H         24.64761       54.94139       68.88147
H         22.49192       54.28467       67.90447
H         23.14183       52.96684       68.94317
N         26.77914       52.92400       67.39471
C         27.85905       51.98388       67.66158
C         27.38679       50.55232       67.83010
O         27.54832       50.02550       68.92212
H         26.80866       53.42736       66.49883
H         28.38644       52.31813       68.58316
H         28.59897       52.00965       66.83486
N         26.83846       49.84348       66.79165
C         26.38595       48.45248       66.93279
C         27.18171       47.46105       66.08780
O         26.91610       46.27094       66.19551
C         24.86956       48.36320       66.62764
C         24.45537       48.18409       65.14413
N         24.50299       46.79159       64.73681
O         25.22182       48.93760       64.25666
H         26.73176       50.30965       65.88056
H         26.51599       48.14574       67.99294
H         24.37973       49.26524       67.05459
H         24.43945       47.49715       67.17603
H         23.76032       46.27570       65.25912
H         24.22597       46.77080       63.73578
N         28.14866       47.86648       65.21388
C         28.88996       46.96521       64.34784
C         28.70406       47.26233       62.86578
O         29.35193       46.58896       62.08203
H         28.38650       48.86075       65.15086
H         28.60099       45.90576       64.51707
H         29.96966       47.06349       64.59299
N         27.86873       48.24795       62.40072
C         27.71220       48.55674       60.97093
C         26.97191       49.87794       60.72957
O         26.50505       50.50556       61.66587
C         27.10269       47.36206       60.18963
C         25.75093       46.88137       60.67097
C         24.59229       47.65768       60.49628
C         25.63667       45.61068       61.26559
C         23.34533       47.16795       60.90408
C         24.39209       45.12538       61.67467
C         23.24149       45.89882       61.49336
O         22.04857       45.41619       61.89610
H         27.36623       48.82039       63.08399
H         28.73054       48.74097       60.56304
H         27.81795       46.51891       60.25573
H         27.03465       47.59314       59.10608
H         24.64515       48.63081       60.02752
H         26.51208       44.99046       61.41430
H         22.45940       47.77197       60.75682
H         24.32317       44.14813       62.13653
H         21.22837       45.92004       61.79745
N         26.92956       50.39855       59.46367
C         26.46619       51.75140       59.15195
C         25.33357       51.70404       58.13586
O         25.47610       51.04788       57.11503
C         27.66070       52.58681       58.59270
C         28.84554       52.57339       59.59609
C         27.21363       54.03608       58.29705
C         30.10551       53.27247       59.08266
H         27.33901       49.85335       58.69209
H         26.11618       52.27050       60.06739
H         28.00463       52.11958       57.64283
H         29.14087       51.52307       59.80277
H         28.53146       53.03897       60.55266
H         26.87537       54.53855       59.22938
H         28.03196       54.62980       57.84535
H         26.38471       54.05431       57.56242
H         30.43964       52.80770       58.13052
H         29.94057       54.35717       58.92959
H         30.91624       53.16230       59.83347
N         24.21236       52.46401       58.32119
C         23.11521       52.54272       57.35825
C         23.06268       53.92423       56.71995
O         23.85941       54.77908       57.06703
C         21.79029       52.21563       58.06813
O         21.53420       53.16075       59.07264
H         24.15534       53.06259       59.15645
H         23.26509       51.80954       56.53700
H         21.86594       51.19908       58.51416
H         20.95449       52.22293       57.33501
H         20.69966       52.87013       59.52361
N         22.14507       54.20206       55.75064
C         22.02390       55.50664       55.10202
C         21.65339       56.58620       56.09960
O         22.30098       57.62363       56.11993
C         20.95651       55.45469       54.00368
H         21.50719       53.44773       55.45562
H         22.98450       55.76987       54.60398
H         19.96179       55.19571       54.42432
H         20.88644       56.44134       53.49578
H         21.23546       54.69403       53.24386
N         20.62490       56.39163       56.97342
C         20.18358       57.38178       57.95195
C         21.33674       57.89657       58.78702
O         21.51414       59.10448       58.86608
C         19.11569       56.77229       58.86996
H         20.14513       55.47785       56.95310
H         19.72273       58.24274       57.41792
H         18.75877       57.52919       59.60096
H         18.24676       56.42811       58.27006
H         19.52647       55.90335       59.42905
N         22.18048       57.03194       59.41373
C         23.31399       57.47470       60.22091
C         24.24933       58.32313       59.37470
O         24.47631       59.47579       59.71497
C         24.07409       56.27168       60.82624
C         23.17403       55.40843       61.73099
C         23.93414       54.26646       62.33571
O         23.96235       54.10649       63.66742
O         24.50738       53.45919       61.62667
H         22.01215       56.02454       59.28340
H         22.93454       58.09129       61.06770
H         24.92416       56.65898       61.43044
H         24.48591       55.63638       60.01170
H         22.33817       54.97246       61.15026
H         22.74104       56.03587       62.53965
N         24.79163       57.81976       58.23150
C         25.63827       58.57545       57.33206
H         26.61644       58.06190       57.22824
H         25.15405       58.62310       56.33294
H         25.81340       59.61286       57.68447
H         24.57584       56.85388       57.96502
Ca        24.31729       50.94845       64.38822
O         22.95877       50.76456       61.35532
H         22.09208       50.30071       61.24157
H         22.83199       51.62936       60.89310
O         21.50042       49.58516       63.98092
H         21.86335       49.80420       64.87532
H         21.30704       48.61535       64.02461

Ca 1.0



