%chk=holoCaM.loop2.water2.frame189.chk
%nprocshared=20
%mem=10GB
%nosave
#b3lyp/svp scf=(tight,noincore,xqc) Test 
#IOP(5/87=12) Density=Current Pop=(MK,readradii) iop(6/33=2) iop(6/42=6)

holoCaM.loop2.water2.frame189 

   -2  1 
C         39.25577       70.58837       89.27519
C         40.62939       71.19984       89.26177
O         40.85391       72.18193       88.57148
H         38.55940       71.14033       88.61039
H         39.30854       69.52801       88.95059
H         38.85174       70.62122       90.31134
N         41.59432       70.66944       90.05525
C         42.92973       71.23340       90.22565
C         43.79154       71.15299       88.96863
O         43.95252       70.06722       88.42915
C         43.62300       70.49311       91.38155
C         44.97790       71.05397       91.65515
O         46.05112       70.24222       91.63639
O         45.11204       72.24624       91.87809
H         41.33048       69.85148       90.62874
H         42.82504       72.29325       90.54326
H         43.71069       69.40785       91.15487
H         43.00576       70.60777       92.29754
N         44.44038       72.26706       88.50175
C         45.34208       72.26655       87.35129
C         46.77848       72.70710       87.68049
O         47.60338       72.61937       86.78129
C         44.76517       73.19231       86.27373
H         44.29019       73.16007       88.98487
H         45.40836       71.24170       86.92700
H         45.40203       73.18558       85.36336
H         43.74524       72.85806       85.98841
H         44.70191       74.23565       86.65473
N         47.15761       73.22169       88.89337
C         48.52658       73.69624       89.17621
C         49.16101       73.09854       90.43692
O         50.33942       73.34789       90.65484
C         48.55120       75.23588       89.29292
C         47.47260       75.74283       90.19700
O         47.24943       75.17049       91.39037
O         46.68930       76.58500       89.78691
H         46.44053       73.34678       89.61991
H         49.20959       73.42377       88.34317
H         48.39496       75.69030       88.29071
H         49.54397       75.57612       89.65905
N         48.46961       72.33200       91.32020
C         49.06281       71.75447       92.51670
C         49.56324       72.79150       93.50421
O         50.73685       72.75663       93.84572
H         47.48546       72.13002       91.13782
H         49.89255       71.07508       92.22121
H         48.29685       71.14142       93.03903
N         48.71153       73.71062       94.04444
C         49.08898       74.64864       95.10609
C         48.26779       74.40194       96.38589
O         48.36572       75.19439       97.31228
C         48.98787       76.11330       94.60247
C         47.59909       76.61475       94.31875
N         47.40157       77.88141       93.88899
O         46.64080       75.88802       94.48868
H         47.73678       73.71855       93.71202
H         50.15829       74.51574       95.38017
H         49.60039       76.21615       93.67982
H         49.42212       76.78316       95.37578
H         48.19561       78.51988       93.74011
H         46.44698       78.22577       93.71028
N         47.48009       73.29026       96.52409
C         46.70655       72.94961       97.71511
C         45.41408       73.73568       97.92091
O         44.70593       73.42058       98.86596
H         47.49644       72.57795       95.78397
H         47.35676       73.01637       98.61394
H         46.39083       71.88820       97.61416
N         45.03525       74.75538       97.10153
C         43.81720       75.54929       97.26211
C         43.03004       75.65772       95.96236
O         43.59935       76.03418       94.94900
C         44.18015       76.98765       97.71359
C         44.62712       77.01871       99.17348
O         45.19903       77.53704       96.91394
H         45.66697       75.02449       96.35035
H         43.14729       75.12539       98.04268
H         43.26780       77.63087       97.67260
H         44.77923       77.87476       96.08206
H         43.81464       76.62810       99.82482
H         45.54119       76.40928       99.32436
H         44.83387       78.06740       99.47587
N         41.67444       75.48073       95.95865
C         40.82815       75.88922       94.83498
C         41.01156       77.38024       94.56513
O         41.00364       78.18419       95.48736
C         39.32487       75.49130       95.06075
C         39.16899       73.98712       94.69055
C         38.35036       76.35438       94.22700
C         37.75296       73.42123       94.80873
H         41.21659       75.15083       96.82184
H         41.15713       75.36416       93.91894
H         39.04619       75.67215       96.12259
H         39.84237       73.38265       95.33422
H         39.48138       73.84069       93.63090
H         38.43473       77.42379       94.51476
H         38.54565       76.24867       93.14204
H         37.29570       76.08913       94.44055
H         37.37814       73.51628       95.84712
H         37.05552       73.92392       94.10661
H         37.76888       72.34765       94.52303
N         41.11012       77.80001       93.27220
C         41.28744       79.17816       92.83254
C         39.98748       79.66981       92.23489
O         39.02292       78.92150       92.23414
C         42.36240       79.22053       91.72276
C         43.63165       78.52833       92.08635
O         43.58126       77.23840       92.45734
O         44.70720       79.09279       91.96846
H         41.01010       77.09340       92.53104
H         41.57325       79.83251       93.68536
H         42.57365       80.26577       91.41031
H         41.97222       78.66554       90.84036
N         39.86747       80.91303       91.70043
C         38.63499       81.35674       91.06367
C         38.33379       80.55266       89.78878
O         37.24765       79.99795       89.73490
C         38.63783       82.88491       90.85497
C         37.35843       83.39053       90.22749
C         36.10606       83.12778       90.81664
C         37.41019       84.14532       89.04341
C         34.93325       83.60386       90.22457
C         36.23493       84.62864       88.46158
C         34.99753       84.35599       89.04974
H         40.66807       81.56276       91.76001
H         37.80607       81.17409       91.78356
H         39.50757       83.20878       90.25796
H         38.74774       83.36294       91.85264
H         36.02893       82.55294       91.72989
H         38.36029       84.36760       88.57375
H         33.97411       83.39161       90.67931
H         36.28446       85.21593       87.55424
H         34.08867       84.72917       88.59646
N         39.21365       80.40642       88.73893
C         38.93904       79.60224       87.54550
C         38.38997       78.22271       87.85382
O         37.39092       77.81748       87.27525
C         40.32403       79.45401       86.88901
C         40.96686       80.77215       87.22627
C         40.55466       80.95531       88.68397
H         38.24826       80.16656       86.88076
H         40.92948       78.68129       87.41703
H         40.29982       79.18896       85.81034
H         42.06188       80.82993       87.04605
H         40.45889       81.55119       86.61396
H         41.20298       80.37334       89.36901
H         40.62025       82.03194       88.90784
N         39.02241       77.45106       88.77288
C         38.64527       76.08786       89.12631
C         37.24022       76.06648       89.70560
O         36.40453       75.32179       89.21473
C         39.68538       75.51764       90.11815
C         41.09592       75.47735       89.47466
C         42.18338       75.07667       90.42231
O         41.91258       74.74093       91.69248
O         43.34184       75.09346       90.04365
H         39.82422       77.88084       89.25754
H         38.67299       75.43995       88.22148
H         39.39855       74.49005       90.43277
H         39.69946       76.16386       91.01669
H         41.39071       76.47548       89.10009
H         41.08940       74.78429       88.60796
N         36.90595       76.90311       90.72494
C         35.58600       76.99674       91.31254
H         34.87428       76.26779       90.87463
H         35.65702       76.81675       92.40559
H         35.18787       78.02176       91.14993
H         37.61857       77.53935       91.08390
Ca        45.35270       75.94809       92.23220
O         42.46045       72.64946       94.03575
H         42.09418       71.82232       94.43629
H         41.90771       72.79331       93.22957
O         45.29597       72.93847       94.50611
H         45.89203       72.20086       94.22205
H         44.81867       72.56944       95.28906

Ca 1.0



