%chk=holoCaM.loop3.water2.frame308.chk
%nprocshared=20
%mem=10GB
%nosave
#b3lyp/svp scf=(tight,noincore,xqc) Test 
#IOP(5/87=12) Density=Current Pop=(MK,readradii) iop(6/33=2) iop(6/42=6)

holoCaM.loop3.water2.frame308 

   0  1 
C          8.63835       51.46628       78.39015
C          7.92434       52.72753       78.01264
O          7.14071       53.22385       78.80695
H          9.73147       51.65556       78.41564
H          8.30983       51.10935       79.38987
H          8.41809       50.67757       77.64020
N          8.16796       53.30480       76.80126
C          7.53736       54.53246       76.32471
C          6.19932       54.21773       75.68038
O          6.05172       54.32387       74.47092
C          8.52338       55.26921       75.39288
C          8.07455       56.62458       74.91234
O          8.08103       56.85140       73.71459
O          7.74919       57.62311       75.76447
H          8.87741       52.86070       76.19784
H          7.35733       55.18829       77.18173
H          8.75531       54.62470       74.51695
H          9.46893       55.42904       75.93921
N          5.17190       53.79754       76.46390
C          3.86451       53.39849       75.96753
C          3.14586       54.60079       75.38017
O          2.76241       54.54385       74.21993
C          3.06958       52.69656       77.10090
C          3.82729       51.42112       77.55398
C          3.14092       50.66191       78.69495
C          3.98667       49.46609       79.18865
N          4.18354       48.44275       78.15829
H          5.32749       53.75741       77.47637
H          3.99299       52.63175       75.16989
H          2.06595       52.40064       76.72430
H          2.93344       53.38789       77.96160
H          4.84245       51.68587       77.91270
H          3.93305       50.75302       76.67449
H          2.13753       50.31061       78.37292
H          3.01248       51.35556       79.55453
H          3.46654       49.00355       80.05595
H          4.97856       49.82651       79.54490
H          4.70274       47.63655       78.57573
H          3.25995       48.10265       77.80581
H          4.75689       48.81197       77.36721
N          2.96959       55.74472       76.10738
C          2.31192       56.93907       75.56401
C          3.01907       57.53644       74.34295
O          2.42066       58.37180       73.67885
C          2.14222       58.03037       76.64295
C          3.45577       58.62236       77.08586
O          4.40177       57.84980       77.64906
O          3.66640       59.81480       76.93805
H          3.29539       55.74620       77.08458
H          1.29533       56.61795       75.24459
H          1.61583       57.60531       77.52382
H          1.50625       58.84522       76.23053
N          4.27823       57.16106       73.98208
C          4.93467       57.60872       72.76713
C          5.22140       59.09246       72.72610
O          4.77600       59.73337       71.78478
H          4.79154       56.48859       74.56377
H          4.31377       57.31379       71.89230
H          5.89923       57.07799       72.66408
N          5.99575       59.69993       73.67725
C          6.39182       61.10979       73.59098
C          7.90932       61.30829       73.54242
O          8.33051       62.42777       73.28192
C          5.75711       61.93271       74.73001
C          6.37947       61.69440       76.08743
N          6.92760       62.72528       76.77397
O          6.38418       60.57493       76.57542
H          6.30886       59.13777       74.47690
H          5.99299       61.53103       72.64318
H          4.66901       61.71077       74.77262
H          5.86390       63.01007       74.47707
H          6.92998       63.68064       76.38721
H          7.34798       62.57469       77.70084
N          8.78923       60.29574       73.80613
C         10.23543       60.43016       73.74310
C         10.91069       60.31158       75.09895
O         12.13206       60.32101       75.11916
H          8.43941       59.37096       74.07137
H         10.53705       61.41263       73.31734
H         10.62353       59.64209       73.06285
N         10.20296       60.30469       76.27322
C         10.84459       60.40108       77.58527
C         10.28114       59.36593       78.54627
O          9.07559       59.34621       78.73503
C         10.62827       61.81296       78.17670
C         11.16929       62.89892       77.26997
C         10.47798       63.26900       76.10108
C         12.37377       63.55035       77.58170
C         10.98849       64.25536       75.25454
C         12.88704       64.53393       76.72964
C         12.19629       64.88750       75.56117
O         12.68225       65.82955       74.72810
H          9.17603       60.36348       76.24370
H         11.94563       60.26783       77.50026
H         11.16932       61.83704       79.14873
H          9.55911       62.01904       78.39294
H          9.54089       62.79676       75.84157
H         12.92625       63.28517       78.47411
H         10.44514       64.52498       74.35718
H         13.82373       65.01691       76.97652
H         13.51898       66.28496       74.89835
N         11.10263       58.51042       79.23068
C         10.60922       57.50889       80.18358
C         11.05961       57.83171       81.60194
O         12.18734       58.25768       81.79821
C         10.99279       56.05920       79.76606
C         12.52039       55.79543       79.77916
C         10.37674       55.75281       78.39690
C         12.88828       54.34994       79.42955
H         12.11929       58.58387       79.08478
H          9.49913       57.52095       80.20085
H         10.52135       55.36857       80.50253
H         12.90720       55.98809       80.80141
H         13.04281       56.47086       79.07025
H          9.28654       55.93059       78.43295
H         10.82591       56.39891       77.61272
H         10.50752       54.68952       78.11616
H         12.37539       53.64153       80.11446
H         12.62138       54.10677       78.38082
H         13.98491       54.21255       79.52900
N         10.19807       57.63361       82.64476
C         10.50028       57.95518       84.03889
C         10.47962       56.70189       84.90533
O         10.26637       55.62082       84.39015
C          9.46451       58.97869       84.54177
O          8.17427       58.42397       84.57280
H          9.27021       57.23748       82.44245
H         11.50861       58.41294       84.12652
H          9.48860       59.89346       83.90563
H          9.71483       59.31974       85.56707
H          7.75288       58.61269       83.69522
N         10.69193       56.79069       86.25202
C         10.63869       55.64844       87.16574
C          9.27330       54.98687       87.15573
O          9.20655       53.77259       87.01756
C         10.95613       56.10425       88.59483
H         10.89192       57.71908       86.64973
H         11.41480       54.90318       86.88108
H         10.21694       56.85551       88.94636
H         10.93740       55.23317       89.28548
H         11.97061       56.55440       88.63118
N          8.13820       55.73373       87.27368
C          6.78630       55.17665       87.26570
C          6.57500       54.26437       86.07564
O          6.14151       53.13535       86.25542
C          5.75269       56.31138       87.22821
H          8.24424       56.75927       87.33409
H          6.61987       54.59038       88.19667
H          4.72219       55.89568       87.23564
H          5.87193       56.96868       88.11516
H          5.87818       56.92893       86.31166
N          6.90983       54.68805       84.82916
C          6.77159       53.86887       83.62950
C          7.54980       52.57035       83.77889
O          6.95236       51.50880       83.66217
C          7.23145       54.67211       82.39261
C          6.30570       55.88505       82.16124
C          6.74074       56.71465       80.99528
O          6.80447       56.16248       79.77606
O          7.00005       57.89877       81.13881
H          7.31289       55.63281       84.74632
H          5.69902       53.60913       83.48001
H          7.19300       54.01952       81.49310
H          8.28216       55.00707       82.53259
H          6.27092       56.53928       83.05557
H          5.27461       55.51975       81.96533
N          8.87423       52.57405       84.08474
C          9.62667       51.35745       84.29961
H         10.67399       51.60521       84.57688
H          9.17472       50.77467       85.13126
H          9.63477       50.74426       83.37481
H          9.36081       53.46724       84.20185
Ca         7.22190       57.38374       77.93728
O          4.25593       58.76658       80.37852
H          3.29430       58.70998       80.15081
H          4.29768       59.40271       81.13539
O          6.58874       60.88645       79.83818
H          7.42179       61.42062       79.86424
H          5.97014       61.36493       80.44511

Ca 1.0



