%chk=holoCaM.loop2.water1.frame232.chk
%nprocshared=20
%mem=10GB
%nosave
#b3lyp/svp scf=(tight,noincore,xqc) Test 
#IOP(5/87=12) Density=Current Pop=(MK,readradii) iop(6/33=2) iop(6/42=6)

holoCaM.loop2.water1.frame232 

   -2  1 
C         57.77082       98.88320       46.27659
C         57.19634       99.85643       45.29535
O         56.52088       99.43392       44.36644
H         58.87348       98.98316       46.31512
H         57.34341       99.09143       47.28114
H         57.50437       97.84155       45.99454
N         57.38017      101.19609       45.46992
C         56.69107      102.16754       44.63771
C         57.16191      102.11589       43.18460
O         58.31331      102.42279       42.90854
C         56.81934      103.60090       45.20723
C         55.81746      104.52652       44.56404
O         55.77666      105.70431       44.87252
O         54.92957      104.01937       43.68630
H         57.93497      101.52070       46.27721
H         55.61905      101.89639       44.70568
H         57.85766      103.97470       45.06440
H         56.59697      103.59358       46.29618
N         56.29809      101.72585       42.20548
C         56.63367      101.65578       40.78764
C         56.87546      103.03525       40.19209
O         57.94346      103.26413       39.64219
C         55.49572      100.96746       40.01770
H         55.35845      101.42628       42.49264
H         57.53793      101.01906       40.66042
H         55.32976       99.94682       40.42454
H         54.54454      101.53466       40.10813
H         55.75693      100.87579       38.94194
N         55.90364      103.99426       40.23804
C         56.03164      105.31009       39.60452
C         57.17537      106.12182       40.17535
O         57.62527      107.04776       39.51348
C         54.76989      106.16996       39.84993
C         53.48658      105.55132       39.37337
O         52.57225      105.13623       40.27432
O         53.26806      105.42261       38.18018
H         55.02594      103.76131       40.72315
H         56.18180      105.16491       38.51164
H         54.87174      107.17132       39.37633
H         54.70174      106.34693       40.94116
N         57.57020      105.94797       41.46611
C         58.45518      106.86970       42.14534
C         57.78614      108.21918       42.27405
O         58.36761      109.21773       41.87465
H         57.17435      105.17905       42.02573
H         59.43405      106.93684       41.62124
H         58.63760      106.49307       43.17494
N         56.54432      108.30599       42.83640
C         55.83930      109.56005       43.08075
C         55.57405      109.75721       44.57491
O         54.93057      110.73406       44.93316
C         54.53485      109.61944       42.25446
C         53.40705      108.78592       42.81002
N         52.23636      109.37072       43.15776
O         53.54405      107.58364       42.94868
H         56.08023      107.43251       43.11906
H         56.46035      110.41218       42.72827
H         54.74962      109.32036       41.20514
H         54.19538      110.67740       42.22871
H         52.09335      110.38505       43.04993
H         51.46049      108.81030       43.52971
N         56.07022      108.88756       45.50733
C         55.93871      109.08468       46.93792
C         54.67743      108.51387       47.55682
O         54.57292      108.63243       48.76950
H         56.69580      108.12551       45.21432
H         56.06041      110.16147       47.18663
H         56.78061      108.55063       47.43120
N         53.69725      107.86894       46.84733
C         52.51960      107.28210       47.50460
C         52.43175      105.77664       47.25598
O         53.23013      105.24008       46.50049
C         51.22288      107.99872       47.05867
C         51.29549      109.51089       47.30821
O         50.98055      107.75136       45.70101
H         53.77961      107.78596       45.82301
H         52.59556      107.41106       48.60570
H         50.38139      107.58875       47.66387
H         50.01946      107.94711       45.54153
H         51.49233      109.71667       48.38175
H         52.09931      109.97367       46.69655
H         50.33102      109.98664       47.03052
N         51.47713      105.03167       47.89282
C         51.30821      103.58802       47.73323
C         49.92753      103.28284       47.16743
O         48.92637      103.56069       47.81322
C         51.57722      102.86212       49.09706
C         53.11297      102.76093       49.31292
C         50.93306      101.46060       49.16405
C         53.53371      102.13310       50.64431
H         50.83513      105.50946       48.54296
H         52.03745      103.18956       47.00465
H         51.10854      103.45449       49.91444
H         53.56015      103.77587       49.26077
H         53.55460      102.14724       48.49440
H         51.08819      100.99009       50.15391
H         49.83090      101.52865       49.06540
H         51.33591      100.80310       48.37093
H         54.64241      102.10903       50.70167
H         53.14115      102.72940       51.49305
H         53.18841      101.08308       50.73433
N         49.82148      102.66322       45.95427
C         48.56556      102.18506       45.38354
C         48.12244      100.89973       46.07145
O         48.83499      100.40154       46.92888
C         48.76022      101.88386       43.87993
C         49.17663      103.10869       43.12091
O         48.36970      104.18611       43.08849
O         50.23885      103.12867       42.52023
H         50.68216      102.50050       45.41446
H         47.78660      102.97256       45.48655
H         47.81227      101.52747       43.42954
H         49.52704      101.08579       43.75756
N         46.95711      100.28700       45.72440
C         46.53216       98.99926       46.26999
C         47.49726       97.87811       45.85064
O         48.06020       97.27439       46.75054
C         45.04380       98.75280       45.92413
C         44.46342       97.40687       46.30650
C         44.85352       96.70973       47.46692
C         43.46639       96.84976       45.48412
C         44.26851       95.47673       47.77916
C         42.87581       95.62672       45.80827
C         43.27920       94.93786       46.95264
H         46.34630      100.76058       45.04006
H         46.55931       99.06762       47.38205
H         44.83405       98.94734       44.85702
H         44.45711       99.53213       46.45702
H         45.61037       97.10467       48.12969
H         43.13250       97.37064       44.59489
H         44.57844       94.93933       48.66597
H         42.10253       95.21582       45.17181
H         42.82145       93.98878       47.20000
N         47.78581       97.55184       44.54504
C         48.78240       96.55678       44.14412
C         50.09626       96.64837       44.89456
O         50.58745       95.63397       45.37145
C         49.02772       96.88613       42.66347
C         47.65114       97.29477       42.21673
C         47.19842       98.17695       43.37683
H         48.34136       95.54010       44.24874
H         49.66675       97.79472       42.56689
H         49.49872       96.06642       42.08005
H         47.59015       97.77844       41.21888
H         47.02735       96.37114       42.20539
H         47.59053       99.20942       43.29059
H         46.09593       98.16399       43.36867
N         50.71641       97.85008       45.03287
C         52.00651       98.03699       45.68829
C         51.94212       97.54662       47.12465
O         52.73359       96.68994       47.49160
C         52.43156       99.52283       45.61121
C         52.60894       99.97799       44.14441
C         52.94543      101.43143       44.00692
O         53.15275      102.20584       45.08632
O         53.01557      101.92446       42.89349
H         50.22584       98.67419       44.65567
H         52.78282       97.44629       45.15076
H         53.39576       99.66376       46.14859
H         51.65810      100.15235       46.10173
H         51.67116       99.82644       43.57739
H         53.40687       99.37663       43.65751
N         50.98918       98.01505       47.97582
C         50.82370       97.55474       49.33934
H         49.81519       97.10171       49.44945
H         51.58068       96.79605       49.62678
H         50.90367       98.41670       50.03291
H         50.32159       98.71229       47.63425
Ca        53.33203      104.90945       42.38898
O         50.52522      106.29814       43.00016
H         49.91213      107.07343       42.94915
H         50.39089      105.82513       42.14148

Ca 1.0



