%chk=holoCaM.loop4.water3.frame400.chk
%nprocshared=20
%mem=10GB
%nosave
#b3lyp/svp scf=(tight,noincore,xqc) Test 
#IOP(5/87=12) Density=Current Pop=(MK,readradii) iop(6/33=2) iop(6/42=6)

holoCaM.loop4.water3.frame400 

   -3  1 
C         87.67960       72.27229       93.01959
C         87.13940       72.53249       94.39094
O         86.08499       72.00657       94.71360
H         88.67871       71.79626       93.09992
H         87.00473       71.58832       92.45953
H         87.76339       73.22754       92.46261
N         87.81213       73.34596       95.25676
C         87.33971       73.61993       96.61081
C         88.23813       74.65366       97.28897
O         89.43303       74.41330       97.39876
C         87.34042       72.32093       97.45902
C         86.61489       72.47025       98.76490
O         86.62174       71.45225       99.64485
O         85.97038       73.47573       99.01258
H         88.68068       73.79398       94.92531
H         86.30024       74.01192       96.53303
H         88.39125       72.01005       97.64512
H         86.83635       71.48537       96.93733
N         87.72244       75.81706       97.78252
C         88.52805       76.84759       98.44660
C         88.14309       77.05266       99.91863
O         88.81677       77.83516      100.57493
C         88.44702       78.19800       97.65804
C         86.98746       78.72310       97.54080
C         89.10087       78.03846       96.27366
C         86.86634       80.11649       96.92010
H         86.71154       75.97263       97.68340
H         89.59578       76.53696       98.47177
H         89.04635       78.95172       98.21640
H         86.53652       78.77809       98.55470
H         86.38263       78.03255       96.92152
H         90.14718       77.68376       96.38728
H         88.54063       77.31017       95.64998
H         89.14895       79.00745       95.73713
H         85.79651       80.41724       96.90602
H         87.43469       80.85827       97.51887
H         87.22533       80.12990       95.87141
N         87.07033       76.43115      100.49603
C         86.61187       76.71233      101.86561
C         86.26010       75.46997      102.69931
O         85.95197       75.63721      103.87174
C         85.39148       77.65707      101.79568
C         84.21689       77.07373      101.04600
O         84.29006       75.82469      100.53928
O         83.21308       77.74501      100.88206
H         86.49695       75.83168       99.89889
H         87.40975       77.25395      102.42040
H         85.70878       78.58919      101.27787
H         85.07089       77.93368      102.82371
N         86.26202       74.20859      102.18214
C         85.95890       73.00711      102.94915
C         84.53599       72.85793      103.48115
O         84.31173       71.85703      104.14754
H         86.55360       74.06870      101.21280
H         86.66244       72.95505      103.80779
H         86.15061       72.12123      102.30556
N         83.53067       73.76518      103.27775
C         82.21705       73.60373      103.91644
C         81.44004       72.36479      103.46698
O         80.50019       72.00265      104.16317
C         81.34057       74.87642      103.79774
C         80.97631       75.29270      102.39934
O         81.39149       74.68455      101.43156
O         80.18813       76.36782      102.21344
H         83.71863       74.61518      102.73265
H         82.41467       73.47387      105.00409
H         81.87545       75.72647      104.27092
H         80.39569       74.71071      104.36000
N         81.73544       71.68292      102.32276
C         81.03713       70.46974      101.90942
C         80.12238       70.67223      100.71542
O         79.51992       69.70295      100.28350
H         82.47376       72.04517      101.70644
H         80.39562       70.07687      102.72760
H         81.79376       69.68814      101.68185
N         79.92570       71.90497      100.16625
C         78.98134       72.18174       99.08724
C         79.71760       72.76749       97.89756
O         80.92637       72.91946       97.95838
C         77.91796       73.17591       99.60381
C         77.11438       72.59526      100.77734
C         76.06392       73.56814      101.24801
N         76.07026       74.03447      102.51880
O         75.19073       73.93380      100.47482
H         80.43186       72.70774      100.54657
H         78.47055       71.25525       98.74725
H         77.20691       73.42224       98.78708
H         78.41561       74.11815       99.92740
H         77.80308       72.35181      101.61490
H         76.61175       71.65756      100.45621
H         76.79372       73.73753      103.18975
H         75.34571       74.69581      102.83547
N         79.03279       73.12592       96.76903
C         79.68692       73.72611       95.61521
C         79.14477       75.12846       95.42428
O         77.99843       75.28368       95.02921
C         79.46894       72.84486       94.35141
C         80.10474       73.46701       93.09769
C         80.04410       71.43667       94.56138
H         78.01430       72.98376       96.72714
H         80.78130       73.80317       95.78822
H         78.37599       72.74367       94.16512
H         79.92752       72.81648       92.21485
H         79.64283       74.44718       92.87164
H         81.19900       73.60236       93.23266
H         79.85614       70.81003       93.66311
H         81.13933       71.48464       94.74230
H         79.55801       70.93832       95.42602
N         79.93531       76.20861       95.69397
C         79.52459       77.57761       95.39912
C         79.46970       77.75780       93.89250
O         79.97390       76.91762       93.16793
C         80.53427       78.56212       96.04721
C         80.29550       80.03067       95.81083
N         79.14585       80.62505       96.20098
O         81.17393       80.70193       95.29100
H         80.86398       76.04678       96.10568
H         78.51818       77.74848       95.84133
H         81.55864       78.30866       95.69488
H         80.49530       78.41879       97.14053
H         78.39690       80.08348       96.65434
H         79.00830       81.63467       96.04918
N         78.85315       78.83176       93.34413
C         78.82868       79.08809       91.90677
C         80.23397       79.26572       91.35813
O         80.55865       78.64259       90.35669
C         77.87703       80.26932       91.57312
C         78.04348       81.51535       92.42260
C         77.07224       81.80362       93.40049
C         79.13418       82.38764       92.27456
C         77.20572       82.91463       94.23232
C         79.27014       83.49906       93.11396
C         78.30794       83.76131       94.10052
O         78.43071       84.81913       94.92667
H         78.37765       79.48260       93.98160
H         78.38646       78.21151       91.37913
H         76.85897       79.86663       91.76996
H         77.90559       80.51794       90.49037
H         76.21632       81.15374       93.53649
H         79.88322       82.21253       91.51586
H         76.45547       83.10800       94.98859
H         80.12498       84.15315       92.99906
H         79.18536       85.42264       94.88207
N         81.13015       80.07886       91.97643
C         82.46325       80.34812       91.45486
C         83.27861       79.06710       91.35203
O         83.92796       78.85471       90.33792
C         83.16385       81.41379       92.33344
C         84.38627       82.05481       91.65322
C         83.98933       82.79866       90.40276
O         84.46553       82.48777       89.32300
O         83.09556       83.80572       90.46928
H         80.84000       80.54384       92.84563
H         82.33448       80.78568       90.44177
H         83.44966       80.97027       93.31243
H         82.44941       82.24210       92.54056
H         85.14639       81.27902       91.42119
H         84.84078       82.79050       92.35116
N         83.23001       78.13670       92.34890
C         83.92770       76.85143       92.29466
C         83.46825       76.05017       91.08406
O         84.29188       75.74079       90.23457
C         83.67706       76.04602       93.59259
C         84.26471       76.75265       94.83165
C         83.89544       76.08012       96.12416
O         84.30270       76.61580       97.28811
O         83.19778       75.08099       96.14042
H         82.63797       78.34584       93.16667
H         85.02272       77.03247       92.20744
H         84.14233       75.03743       93.51128
H         82.58111       75.91192       93.72771
H         83.88652       77.79086       94.90110
H         85.37177       76.79052       94.74017
N         82.16161       75.69317       90.93857
C         81.63895       74.95804       89.80517
H         80.85254       75.56601       89.30928
H         82.42157       74.71717       89.05667
H         81.18216       74.01021       90.15931
H         81.49057       75.95926       91.66377
Ca        82.92811       74.69144       99.14834
O         83.74800       72.35142       96.72601
H         83.92121       72.72117       95.82584
H         84.09221       71.42505       96.68142
O         81.22371       76.81458       98.75511
H         81.04801       76.82065       99.72691
H         82.00708       77.40952       98.63693
O         83.48591       71.62084       99.45130
H         83.17228       70.79003       99.01514
H         84.08182       71.30942      100.17720

Ca 1.0



