%chk=holoCaM.loop3.water2.frame294.chk
%nprocshared=20
%mem=10GB
%nosave
#b3lyp/svp scf=(tight,noincore,xqc) Test 
#IOP(5/87=12) Density=Current Pop=(MK,readradii) iop(6/33=2) iop(6/42=6)

holoCaM.loop3.water2.frame294 

   0  1 
C         30.07073       43.96830       81.87597
C         30.50080       45.17216       82.65623
O         30.84145       45.04403       83.82328
H         29.03580       44.11593       81.50178
H         30.75407       43.83118       81.01116
H         30.10121       43.05534       82.50678
N         30.48886       46.39335       82.05935
C         30.91202       47.62265       82.70878
C         29.68463       48.48420       82.91445
O         29.53529       49.52034       82.28181
C         31.98567       48.29070       81.82852
C         32.60048       49.51229       82.44486
O         33.41444       50.14618       81.79956
O         32.29357       49.90396       83.69694
H         30.14584       46.46036       81.08762
H         31.35880       47.42265       83.70773
H         31.53267       48.56684       80.85092
H         32.81066       47.57142       81.63814
N         28.72973       48.06875       83.79030
C         27.47663       48.78451       83.99936
C         27.65200       50.13251       84.70882
O         26.65001       50.81917       84.85449
C         26.46187       47.89464       84.75781
C         26.15640       46.59233       83.98563
C         25.03250       45.78731       84.65274
C         24.67868       44.49999       83.88336
N         25.75551       43.50729       83.92079
H         28.88892       47.17792       84.28451
H         27.02680       48.98608       83.00086
H         25.51129       48.46254       84.86309
H         26.84161       47.65241       85.77490
H         27.07237       45.97338       83.92479
H         25.83402       46.84826       82.95235
H         24.12312       46.42693       84.67556
H         25.30488       45.53108       85.69935
H         24.42405       44.74467       82.82781
H         23.77522       44.05415       84.35483
H         25.98308       43.26396       84.91232
H         25.43375       42.64123       83.43095
H         26.61025       43.85584       83.43320
N         28.86569       50.59930       85.14586
C         29.04434       51.92249       85.75841
C         29.85291       52.87213       84.87024
O         29.94121       54.04666       85.19988
C         29.66370       51.81329       87.16857
C         31.08191       51.30486       87.16104
O         31.36133       50.06285       86.72655
O         31.98789       52.01969       87.55879
H         29.69858       50.01551       85.01185
H         28.05039       52.40421       85.88230
H         29.03915       51.15002       87.80466
H         29.65376       52.82639       87.62921
N         30.43409       52.44815       83.71374
C         31.07543       53.31583       82.74540
C         32.28400       54.06865       83.24973
O         32.28539       55.28544       83.12577
H         30.36909       51.46302       83.44877
H         30.32135       54.03653       82.35924
H         31.40901       52.69486       81.88490
N         33.37875       53.42228       83.75201
C         34.64114       54.11957       84.03042
C         35.79530       53.58947       83.17514
O         36.86718       54.17715       83.21521
C         34.99553       54.08365       85.53065
C         35.44664       52.73029       86.02296
N         36.68429       52.56870       86.55034
O         34.69213       51.77562       85.95239
H         33.31971       52.40363       83.89283
H         34.52637       55.19274       83.76669
H         34.11921       54.42497       86.12257
H         35.81622       54.81344       85.70382
H         37.33876       53.36182       86.62287
H         36.99372       51.64721       86.89139
N         35.65680       52.47536       82.39880
C         36.69608       51.91289       81.55823
C         37.14812       50.54839       82.03846
O         37.91904       49.92647       81.32066
H         34.77105       51.96894       82.39231
H         37.59348       52.56652       81.50996
H         36.28579       51.82403       80.52926
N         36.80151       50.05402       83.26910
C         37.35790       48.81503       83.80659
C         36.27401       47.91242       84.36783
O         35.13794       48.34304       84.50684
C         38.34552       49.13634       84.95814
C         39.48979       50.03864       84.55014
C         39.26926       51.39158       84.22785
C         40.80126       49.53746       84.50969
C         40.32996       52.21405       83.84623
C         41.86323       50.36363       84.12985
C         41.62918       51.70424       83.79137
O         42.64233       52.51042       83.41697
H         36.20871       50.61772       83.89560
H         37.90455       48.26043       83.01265
H         38.75514       48.17278       85.33238
H         37.81194       49.61675       85.80584
H         38.27970       51.82220       84.27434
H         41.00331       48.50471       84.76473
H         40.13920       53.24998       83.59443
H         42.86666       49.95953       84.09753
H         43.55577       52.19606       83.36232
N         36.58093       46.63758       84.74942
C         35.67094       45.77932       85.50858
C         36.40927       45.11276       86.66784
O         37.63118       45.16489       86.72509
C         34.96975       44.72637       84.60049
C         35.99134       43.82226       83.86323
C         34.02431       45.43879       83.61943
C         35.34118       42.69921       83.05052
H         37.52343       46.27845       84.53081
H         34.87972       46.40997       85.97308
H         34.33352       44.08521       85.25120
H         36.65555       43.34127       84.61238
H         36.62011       44.43417       83.18101
H         33.30972       46.07180       84.18578
H         34.58760       46.07967       82.91052
H         33.42208       44.71132       83.04095
H         34.71915       42.05627       83.70867
H         34.71544       43.09997       82.22759
H         36.13344       42.07366       82.58813
N         35.70646       44.47744       87.64716
C         36.32218       43.77132       88.76950
C         35.80761       42.34011       88.83869
O         34.95161       41.97583       88.04697
C         36.02065       44.53165       90.07083
O         34.63763       44.62472       90.27553
H         34.67799       44.51319       87.60683
H         37.42694       43.73237       88.64963
H         36.45637       45.55319       89.98121
H         36.49206       44.01561       90.93550
H         34.50783       45.27500       91.01371
N         36.29220       41.45852       89.76247
C         35.78483       40.08987       89.88074
C         34.37358       40.02623       90.47040
O         33.81810       38.93777       90.52749
C         36.72448       39.24925       90.75077
H         37.06527       41.76234       90.37456
H         35.78198       39.63079       88.86629
H         36.76883       39.65493       91.78374
H         36.37406       38.19498       90.79085
H         37.74588       39.25424       90.31435
N         33.73170       41.13954       90.92803
C         32.37913       41.13746       91.47273
C         31.40423       41.50673       90.37867
O         30.44184       40.78288       90.16542
C         32.29011       42.12786       92.63850
H         34.19973       42.05189       90.85974
H         32.10781       40.13442       91.87291
H         33.00059       41.83355       93.43987
H         32.53797       43.15914       92.30576
H         31.26258       42.12927       93.06128
N         31.64351       42.59348       89.59405
C         30.82462       42.97295       88.44669
C         30.69019       41.79810       87.49556
O         29.57308       41.42698       87.16293
C         31.46702       44.16592       87.70666
C         31.50292       45.44074       88.56638
C         32.22713       46.53875       87.85191
O         33.33035       47.07923       88.40361
O         31.82524       46.94447       86.77312
H         32.49530       43.13656       89.78805
H         29.80865       43.27514       88.78633
H         30.88618       44.38619       86.78388
H         32.49789       43.88576       87.40320
H         32.02589       45.26065       89.52726
H         30.46652       45.76786       88.79584
N         31.79218       41.13366       87.05616
C         31.70990       39.97871       86.19172
H         31.25820       40.26495       85.21959
H         32.72769       39.57098       86.01117
H         31.09557       39.18794       86.67361
H         32.72024       41.43606       87.37287
Ca        33.49187       49.34132       86.61681
O         36.20089       48.49623       87.74539
H         35.86654       48.09274       88.58476
H         36.98801       47.94689       87.50457
O         33.84765       50.42604       89.38068
H         34.01598       49.80452       90.13244
H         34.68387       50.94931       89.29486

Ca 1.0



