%chk=holoCaM.loop3.water2.frame191.chk
%nprocshared=20
%mem=10GB
%nosave
#b3lyp/svp scf=(tight,noincore,xqc) Test 
#IOP(5/87=12) Density=Current Pop=(MK,readradii) iop(6/33=2) iop(6/42=6)

holoCaM.loop3.water2.frame191 

   0  1 
C         44.21526       58.98597       78.97532
C         45.46096       59.68566       79.41906
O         46.45115       59.65753       78.70169
H         43.39101       59.72386       78.88345
H         44.37082       58.49441       77.99158
H         43.93809       58.21531       79.72437
N         45.47602       60.35288       80.60582
C         46.64712       61.07022       81.08917
C         47.78814       60.08944       81.30979
O         47.71161       59.26061       82.20612
C         46.26995       61.85192       82.36407
C         47.33554       62.74766       82.90791
O         48.43774       62.82311       82.39255
O         47.04616       63.50814       83.97472
H         44.60853       60.36799       81.16560
H         46.93379       61.80773       80.30904
H         45.95943       61.14451       83.16301
H         45.40291       62.50494       82.12152
N         48.83745       60.07381       80.43983
C         49.88752       59.06143       80.46672
C         50.85125       59.24678       81.63967
O         51.63361       58.34419       81.90156
C         50.66332       59.11363       79.12255
C         51.53034       57.87103       78.85873
C         52.27917       57.92219       77.51605
C         53.38384       58.99243       77.49125
N         54.17124       58.90306       76.26184
H         48.81302       60.73379       79.65278
H         49.37625       58.07558       80.53653
H         51.26473       60.04727       79.09973
H         49.92671       59.15945       78.28874
H         50.85207       56.98981       78.83829
H         52.27679       57.71477       79.66085
H         51.56525       58.08346       76.67765
H         52.76060       56.93075       77.37241
H         54.06136       58.83846       78.36030
H         52.94343       60.00827       77.56799
H         54.62732       57.96353       76.19722
H         53.56078       59.05798       75.42719
H         54.91794       59.63493       76.27998
N         50.91272       60.42300       82.33084
C         51.92576       60.72228       83.34351
C         51.32225       61.11851       84.69958
O         52.08367       61.32455       85.63392
C         52.83222       61.84656       82.77701
C         52.02971       63.10027       82.54505
O         51.77295       63.56508       81.30093
O         51.51850       63.64533       83.50215
H         50.27757       61.18413       82.06164
H         52.56413       59.82901       83.52159
H         53.26254       61.49704       81.81299
H         53.67421       62.06460       83.46967
N         49.97606       61.26510       84.87876
C         49.34946       61.63328       86.14030
C         49.73731       63.00786       86.65833
O         50.18389       63.09051       87.79384
H         49.33763       61.08241       84.09543
H         49.58270       60.85924       86.90448
H         48.24741       61.63683       85.99500
N         49.56480       64.13384       85.90231
C         49.82597       65.49061       86.39630
C         48.61169       66.40593       86.20528
O         48.76371       67.61615       86.30219
C         51.10268       66.05877       85.73221
C         50.93445       66.55428       84.31799
N         51.44184       67.75038       83.94339
O         50.34985       65.87485       83.49829
H         49.24727       64.02407       84.93047
H         50.06996       65.46236       87.48070
H         51.88342       65.26827       85.76389
H         51.48320       66.90626       86.34333
H         51.94582       68.34907       84.61269
H         51.34489       68.07590       82.97027
N         47.36711       65.89759       85.95327
C         46.19317       66.72486       85.71077
C         46.13069       67.31230       84.30705
O         45.18421       68.03729       84.03659
H         47.22062       64.88081       85.99456
H         46.13366       67.52128       86.48400
H         45.28453       66.09247       85.81455
N         47.06412       67.02439       83.35338
C         47.02925       67.53608       81.98549
C         46.92358       66.37125       80.96808
O         47.67317       65.21881       81.25192
C         48.26006       68.43204       81.74339
C         48.11239       69.78020       82.41696
C         48.93769       70.16437       83.48371
C         47.14767       70.69023       81.94382
C         48.80660       71.42938       84.06505
C         47.02119       71.95715       82.52052
C         47.85338       72.33178       83.58375
O         47.74984       73.55313       84.14567
H         47.84932       66.40587       83.59310
H         46.12276       68.15136       81.79857
H         48.38217       68.65630       80.66420
H         49.16747       67.88743       82.07290
H         49.67946       69.49273       83.87230
H         46.50391       70.42583       81.11381
H         49.45235       71.71039       84.88739
H         46.28150       72.64805       82.13542
H         47.11226       74.21112       83.83346
N         47.01108       66.82415       79.57421
C         46.93504       65.81855       78.49450
C         47.43495       66.51703       77.23916
O         46.90180       67.56040       76.88241
C         45.49967       65.22089       78.24711
C         44.99459       64.41223       79.47312
C         45.52799       64.31051       76.99218
C         43.62898       63.74233       79.29086
H         46.28424       67.56151       79.41547
H         47.62052       64.97124       78.71931
H         44.78636       66.05002       78.04414
H         44.88664       65.08572       80.34258
H         45.73234       63.62405       79.71900
H         45.84641       64.87292       76.09167
H         46.22094       63.45445       77.14089
H         44.52084       63.92545       76.74051
H         43.34475       63.23043       80.23467
H         42.85527       64.49944       79.04597
H         43.65404       62.96254       78.50279
N         48.43296       65.96603       76.49604
C         48.96696       66.56286       75.27979
C         48.53012       65.76322       74.06959
O         47.82723       64.77181       74.22035
C         50.50099       66.62232       75.37327
O         50.88040       67.39268       76.47832
H         48.80188       65.04982       76.77875
H         48.57503       67.59485       75.14159
H         50.92792       67.08090       74.45636
H         50.89420       65.58440       75.47863
H         51.85562       67.24920       76.59542
N         48.88004       66.16350       72.81817
C         48.45389       65.46624       71.61316
C         48.97807       64.04375       71.58207
O         48.17733       63.12702       71.47158
C         48.91971       66.22171       70.36441
H         49.44857       67.02001       72.71790
H         47.34009       65.44737       71.58469
H         48.56217       65.70265       69.44954
H         48.49742       67.24951       70.36897
H         50.02731       66.29395       70.32970
N         50.31669       63.78534       71.66427
C         50.85785       62.43089       71.57051
C         50.34407       61.51519       72.66827
O         50.34837       60.30731       72.46900
C         52.38881       62.45443       71.59758
H         50.96683       64.57927       71.76599
H         50.53566       62.01391       70.59044
H         52.79556       61.42835       71.47181
H         52.77299       63.08772       70.76979
H         52.75120       62.86990       72.56308
N         49.90590       62.00836       73.85978
C         49.34599       61.16396       74.90962
C         48.04350       60.55827       74.42223
O         47.93756       59.34076       74.38277
C         49.14111       61.98078       76.20442
C         50.50551       62.38905       76.79484
C         50.37207       63.27088       77.99980
O         50.92323       64.35940       78.02356
O         49.66191       62.86829       79.06534
H         49.97168       63.02400       74.02561
H         50.05695       60.34061       75.15284
H         48.60722       61.36254       76.96031
H         48.51817       62.87244       75.98630
H         51.11568       62.92468       76.03704
H         51.05122       61.46856       77.08689
N         47.02165       61.35635       74.00153
C         45.77042       60.84979       73.47469
H         44.92929       61.23150       74.08952
H         45.64290       61.20876       72.43110
H         45.72962       59.74050       73.46754
H         47.13716       62.37742       74.03221
Ca        49.95419       64.94521       81.01924
O         52.80808       66.39303       81.15751
H         52.72160       66.39733       80.17139
H         53.62138       65.85617       81.33150
O         50.33108       67.38121       79.38870
H         50.03798       68.20684       78.92933
H         49.86701       66.65301       78.90611

Ca 1.0



