%chk=holoCaM.loop3.water3.frame491.chk
%nprocshared=20
%mem=10GB
%nosave
#b3lyp/svp scf=(tight,noincore,xqc) Test 
#IOP(5/87=12) Density=Current Pop=(MK,readradii) iop(6/33=2) iop(6/42=6)

holoCaM.loop3.water3.frame491 

   0  1 
C          5.07139       51.14400       25.13809
C          5.11511       49.75515       24.58413
O          5.53588       49.57558       23.44923
H          4.02966       51.40012       25.41947
H          5.72089       51.19827       26.03750
H          5.43831       51.87712       24.38862
N          4.71381       48.70570       25.35325
C          4.81121       47.33011       24.89303
C          3.88548       47.11278       23.70240
O          2.68398       47.29778       23.84032
C          4.47866       46.34884       26.03565
C          5.14275       45.03204       25.78013
O          5.01342       44.40023       24.60300
O          5.94584       44.60305       26.59389
H          4.38665       48.89749       26.31294
H          5.87728       47.17109       24.61049
H          3.38228       46.26087       26.17916
H          4.91404       46.72628       26.98832
N          4.39119       46.76941       22.48751
C          3.58193       46.67663       21.27236
C          2.53216       45.57851       21.37446
O          1.36432       45.86581       21.15297
C          4.51284       46.49864       20.05535
C          3.85380       46.75869       18.69490
C          4.94450       46.80304       17.60976
C          4.38595       47.17920       16.23399
N          5.47045       47.31842       15.26013
H          5.41170       46.63754       22.41534
H          3.07753       47.65917       21.12878
H          4.97047       45.49412       20.04623
H          5.31492       47.26315       20.16488
H          3.35292       47.75109       18.72312
H          3.09495       45.97810       18.46976
H          5.46173       45.82007       17.54981
H          5.69268       47.57697       17.89337
H          3.84482       48.14889       16.30746
H          3.67103       46.39897       15.89272
H          5.99318       46.41751       15.16659
H          5.06935       47.57959       14.33089
H          6.12884       48.07395       15.56283
N          2.87087       44.31173       21.75881
C          1.90040       43.22169       21.90090
C          1.60891       42.87233       23.36066
O          0.84475       41.94552       23.59471
C          2.33905       41.98624       21.08070
C          3.61446       41.31898       21.52721
O          4.33544       41.79196       22.55984
O          3.99970       40.32090       20.94025
H          3.85433       44.13068       22.00361
H          0.91841       43.53018       21.47992
H          2.45330       42.28690       20.01707
H          1.52830       41.22615       21.13165
N          2.09988       43.61766       24.39240
C          1.71322       43.41061       25.77946
C          2.21065       42.13427       26.42900
O          1.81800       41.91024       27.56602
H          2.67415       44.44242       24.18751
H          0.60322       43.43598       25.83656
H          2.09410       44.25344       26.39414
N          3.06320       41.25237       25.82278
C          3.46919       40.00785       26.48363
C          4.26295       40.23683       27.76832
O          4.45974       39.28112       28.50624
C          4.26840       39.08018       25.54040
C          5.67032       39.57519       25.26996
N          6.74660       38.83085       25.61987
O          5.83724       40.65850       24.73814
H          3.38861       41.44434       24.86783
H          2.52595       39.47602       26.74092
H          3.71933       38.96074       24.58155
H          4.33125       38.07638       26.01370
H          6.63315       37.91266       26.07350
H          7.70149       39.17381       25.43869
N          4.78067       41.46026       28.07876
C          5.52112       41.74064       29.29348
C          6.94108       42.17826       29.01731
O          7.58278       42.61356       29.96331
H          4.65579       42.25035       27.43105
H          5.55670       40.86861       29.98268
H          4.99130       42.56274       29.82049
N          7.52900       42.05015       27.78495
C          8.90614       42.45500       27.53034
C          8.95630       43.41928       26.32328
O          8.86358       42.68363       25.12979
C          9.82901       41.23164       27.30270
C          9.90596       40.32915       28.51153
C          8.80412       39.54907       28.90758
C         11.09563       40.25610       29.25507
C          8.88658       38.72929       30.03580
C         11.17528       39.43709       30.38389
C         10.06869       38.67316       30.78030
O         10.13057       37.88331       31.87078
H          7.00793       41.61617       27.01028
H          9.30250       43.00030       28.41448
H         10.84347       41.62980       27.07976
H          9.51037       40.63083       26.42377
H          7.88008       39.56735       28.34529
H         11.96043       40.84198       28.96913
H          8.02909       38.13791       30.33143
H         12.09699       39.40024       30.95030
H         10.92807       37.82204       32.41569
N         10.20106       44.19344       26.32891
C         10.31244       45.19045       25.24534
C         11.63524       44.92456       24.56289
O         12.66286       44.89350       25.22768
C         10.19198       46.66659       25.76252
C          8.76533       46.91539       26.32564
C         10.50216       47.66930       24.62825
C          8.54401       48.32172       26.89371
H         10.38002       44.63067       27.26305
H          9.50403       45.05783       24.49072
H         10.94297       46.83122       26.56663
H          8.56261       46.19576       27.14551
H          8.01658       46.74186       25.52352
H         11.52427       47.51214       24.23234
H          9.77090       47.56644       23.80073
H         10.48852       48.71555       24.99194
H          9.26897       48.52849       27.70857
H          8.63454       49.10201       26.11073
H          7.51417       48.39574       27.30292
N         11.67738       44.75011       23.21439
C         12.89326       44.50816       22.46066
C         13.39271       45.80826       21.87524
O         12.76026       46.83473       22.07688
C         12.61698       43.45878       21.36413
O         11.67289       43.94002       20.43844
H         10.81614       44.90082       22.67985
H         13.69018       44.11936       23.13198
H         12.26964       42.50918       21.83551
H         13.54583       43.21192       20.81100
H         10.83117       43.43104       20.57247
N         14.54311       45.85881       21.16101
C         15.06258       47.09479       20.58942
C         14.08854       47.67942       19.57920
O         13.74994       48.84740       19.68696
C         16.41728       46.84143       19.92803
H         15.07590       44.98278       21.02920
H         15.23672       47.83416       21.40523
H         16.82702       47.79322       19.52818
H         17.13017       46.44713       20.68449
H         16.32654       46.10528       19.10205
N         13.57811       46.89639       18.58531
C         12.64654       47.37637       17.56554
C         11.42183       48.03133       18.17683
O         11.12003       49.16131       17.81435
C         12.21522       46.21381       16.66351
H         13.85867       45.90452       18.56438
H         13.16600       48.12262       16.92377
H         13.10570       45.75799       16.18037
H         11.69012       45.43103       17.25216
H         11.53469       46.58042       15.86540
N         10.68999       47.39722       19.13524
C          9.52195       47.99305       19.78532
C          9.87701       49.35068       20.37734
O          9.24403       50.33192       20.01414
C          8.96491       47.04571       20.87573
C          8.34310       45.77117       20.27205
C          7.86140       44.82207       21.33750
O          8.65106       44.30308       22.10214
O          6.56364       44.49660       21.43466
H         11.00836       46.46389       19.43825
H          8.71927       48.15799       19.03089
H          8.16687       47.56875       21.44855
H          9.78456       46.78238       21.57700
H          9.07662       45.23086       19.63927
H          7.48836       46.06947       19.62798
N         10.90598       49.48490       21.25699
C         11.33760       50.75298       21.80992
H         12.38815       50.94567       21.50309
H         10.71377       51.60300       21.46318
H         11.29250       50.70706       22.91754
H         11.43356       48.65285       21.52926
Ca         6.85305       43.20909       24.28410
O          7.23931       39.55434       22.22814
H          7.10676       38.59392       22.03105
H          6.32264       39.92120       22.28313
O          9.66609       41.38346       22.60239
H          9.77952       40.79620       21.81362
H         10.07011       40.87592       23.35057
O          6.63637       41.85921       20.27890
H          6.03097       41.81154       19.49717
H          7.51398       42.11797       19.90131

Ca 1.0



