%chk=holoCaM-CaMKII.loop4.water2.frame200.chk
%nprocshared=20
%mem=10GB
%nosave
#b3lyp/svp scf=(tight,noincore,xqc) Test 
#IOP(5/87=12) Density=Current Pop=(MK,readradii) iop(6/33=2) iop(6/42=6)

holoCaM-CaMKII.loop4.water2.frame200 

   -3  1 
C         13.08536       43.52387       22.77607
C         13.94194       42.39058       22.27984
O         13.75293       41.95095       21.15787
H         12.01991       43.21116       22.78806
H         13.36551       43.82515       23.80879
H         13.20208       44.40521       22.11274
N         14.90173       41.85874       23.08395
C         15.77231       40.73631       22.72151
C         14.90497       39.51986       22.39667
O         14.13780       39.10567       23.25465
C         16.71298       40.49352       23.92916
C         17.81822       39.46565       23.91955
O         18.32833       39.21621       24.99740
O         18.31920       38.84496       22.83001
H         15.00614       42.27735       24.02211
H         16.38439       41.02305       21.85205
H         16.05045       40.22613       24.78084
H         17.20830       41.45682       24.18801
N         14.95685       38.91465       21.16975
C         14.10389       37.78462       20.78314
C         14.85838       36.45925       20.82644
O         14.21931       35.43244       20.64247
C         13.45021       38.00030       19.36699
C         14.50796       37.97768       18.22249
C         12.61156       39.28845       19.34106
C         13.94432       38.13348       16.80683
H         15.64027       39.26051       20.49050
H         13.28370       37.68153       21.52708
H         12.75098       37.15375       19.18468
H         15.05275       37.01029       18.24922
H         15.23914       38.78306       18.36654
H         12.05700       39.38541       18.38468
H         11.85531       39.27179       20.15289
H         13.25826       40.17870       19.45914
H         13.47533       39.12852       16.66384
H         14.77741       38.05988       16.07382
H         13.20701       37.33465       16.58577
N         16.20974       36.39797       21.01948
C         16.97682       35.15588       20.97449
C         17.89126       34.96210       22.19000
O         18.61000       33.97259       22.21536
C         17.72697       35.08983       19.63002
C         18.63170       36.25802       19.37382
O         18.41275       37.00042       18.43116
O         19.69527       36.48285       20.15985
H         16.74253       37.27003       21.11466
H         16.29620       34.27601       20.96564
H         16.95759       35.06568       18.82527
H         18.30921       34.14679       19.56136
N         17.86498       35.80029       23.26796
C         18.59442       35.53598       24.50339
C         20.08866       35.81534       24.48958
O         20.69261       35.63297       25.53811
H         17.19856       36.58425       23.28186
H         18.40246       34.48952       24.82582
H         18.17947       36.20111       25.29225
N         20.76186       36.29824       23.40296
C         22.18219       36.66989       23.46503
C         22.44398       37.92329       24.31841
O         23.59825       38.30624       24.45085
C         22.79945       36.82091       22.05334
C         22.22896       37.90839       21.18414
O         22.70068       38.08904       20.07321
O         21.19919       38.67033       21.59308
H         20.25654       36.40455       22.51727
H         22.73978       35.82264       23.92461
H         22.68737       35.85529       21.51440
H         23.88961       37.01196       22.17034
N         21.43690       38.59077       24.95299
C         21.64289       39.70746       25.85921
C         21.68464       41.06321       25.18723
O         21.76849       42.03893       25.92108
H         20.48248       38.23312       24.89380
H         22.54033       39.53533       26.49288
H         20.77229       39.74285       26.55110
N         21.61958       41.23144       23.83197
C         21.61433       42.55021       23.20174
C         20.41270       42.76261       22.29842
O         19.62707       41.85168       22.06917
C         22.89572       42.76786       22.37245
C         24.15658       42.80444       23.23813
C         25.31783       43.34519       22.44104
N         25.75339       42.72127       21.32251
O         25.85799       44.38065       22.80180
H         21.58550       40.40675       23.22204
H         21.56499       43.34969       23.97308
H         22.83014       43.75589       21.87216
H         22.98521       41.99371       21.57959
H         24.38222       41.79308       23.63814
H         23.98091       43.49130       24.09589
H         25.31000       41.85253       20.99266
H         26.53312       43.11854       20.77739
N         20.23862       43.99551       21.74234
C         19.19699       44.36508       20.80196
C         19.86000       44.83323       19.51557
O         20.66118       45.75809       19.56960
C         18.30279       45.47025       21.43485
C         17.28970       46.05495       20.43640
C         17.53732       44.90352       22.64357
H         20.89719       44.74611       22.00274
H         18.55178       43.50730       20.57337
H         18.95010       46.30777       21.77860
H         16.68160       46.84437       20.92808
H         17.81076       46.53194       19.58079
H         16.60774       45.26851       20.05695
H         18.23664       44.51009       23.40991
H         16.91993       45.69602       23.11737
H         16.86330       44.07819       22.32286
N         19.52258       44.27923       18.31157
C         20.01853       44.79212       17.03419
C         18.93372       45.63353       16.38796
O         17.88547       45.78739       16.98688
C         20.56332       43.67886       16.09845
C         19.52753       42.82689       15.39554
N         18.76722       41.93133       16.05808
O         19.40425       42.92732       14.18326
H         18.78640       43.56174       18.29971
H         20.87651       45.47471       17.21976
H         21.29177       43.03530       16.63601
H         21.13535       44.19568       15.29721
H         18.87603       41.78317       17.06753
H         18.08773       41.35298       15.54116
N         19.11543       46.24613       15.18977
C         18.11902       47.13394       14.58963
C         16.78643       46.43354       14.35279
O         15.76044       46.96963       14.74584
C         18.67103       47.71138       13.27251
C         17.78490       48.78023       12.67525
C         17.49789       49.95420       13.39628
C         17.26156       48.62836       11.38110
C         16.70452       50.95596       12.83158
C         16.47244       49.63525       10.81585
C         16.19368       50.80413       11.53940
O         15.44421       51.78790       11.00269
H         20.01201       46.10324       14.70016
H         17.95420       47.98351       15.28837
H         18.83462       46.87990       12.55167
H         19.65774       48.18120       13.47568
H         17.89279       50.10216       14.39315
H         17.47187       47.73649       10.80439
H         16.49451       51.85550       13.39695
H         16.08363       49.50831        9.81363
H         15.08692       51.73123       10.10513
N         16.73974       45.21650       13.74174
C         15.50683       44.47300       13.46859
C         14.64894       44.35124       14.71660
O         13.48223       44.71724       14.68456
C         15.87654       43.07560       12.91489
C         14.65801       42.24619       12.48497
C         15.09053       40.91996       11.92415
O         15.81071       40.87273       10.93902
O         14.67879       39.77493       12.50131
H         17.63927       44.78582       13.48113
H         14.92362       45.01603       12.69265
H         16.45349       42.50924       13.68063
H         16.53007       43.21823       12.02642
H         14.08762       42.79552       11.70574
H         13.99166       42.07038       13.35675
N         15.18985       43.87725       15.86516
C         14.46082       43.75450       17.12439
C         13.90329       45.09826       17.56921
O         12.70847       45.18941       17.81214
C         15.40095       43.18086       18.19001
C         15.80521       41.73373       17.84647
C         16.79730       41.19791       18.82245
O         17.29149       39.95954       18.69850
O         17.15166       41.86990       19.77056
H         16.18918       43.62210       15.83879
H         13.61015       43.04545       17.00950
H         14.90211       43.18332       19.18290
H         16.30809       43.82104       18.25358
H         16.25136       41.66948       16.84131
H         14.90198       41.09033       17.85796
N         14.70926       46.18900       17.66652
C         14.25799       47.51023       18.04656
H         13.18058       47.53076       18.30802
H         14.84608       47.86077       18.92049
H         14.43133       48.20906       17.20024
H         15.69499       46.09199       17.42853
Ca        18.16184       39.35615       20.66018
O         19.80896       39.20601       17.25760
H         20.59320       38.93839       16.71696
H         19.03421       39.07330       16.65541
O         21.51333       41.05025       18.95766
H         21.98156       40.71245       18.15321
H         22.05529       40.71555       19.71471

Ca 1.0



