%chk=holoCaM-CaMKII.loop2.water2.frame394.chk
%nprocshared=20
%mem=10GB
%nosave
#b3lyp/svp scf=(tight,noincore,xqc) Test 
#IOP(5/87=12) Density=Current Pop=(MK,readradii) iop(6/33=2) iop(6/42=6)

holoCaM-CaMKII.loop2.water2.frame394 

   -2  1 
C         58.38323       85.26116       62.83633
C         57.08519       85.09513       62.09630
O         56.50191       84.02206       62.12179
H         59.18911       85.55774       62.13378
H         58.26568       86.06219       63.60011
H         58.67435       84.32557       63.35805
N         56.54993       86.16351       61.45149
C         55.22360       86.16726       60.84413
C         55.14448       85.31383       59.57886
O         55.94130       85.53817       58.67797
C         54.85117       87.62189       60.48111
C         53.38984       87.79444       60.19791
O         52.52735       86.78115       60.39630
O         52.96660       88.88638       59.85802
H         57.07966       87.04945       61.48771
H         54.50202       85.82127       61.61604
H         55.45896       87.95593       59.61145
H         55.07629       88.29575       61.33347
N         54.15965       84.37701       59.41046
C         53.97340       83.61995       58.16832
C         52.61873       83.87827       57.48466
O         52.43550       83.36838       56.38771
C         54.12783       82.12320       58.46245
H         53.50425       84.21022       60.18534
H         54.75650       83.90250       57.43220
H         53.34607       81.78479       59.17691
H         54.03754       81.52720       57.52855
H         55.12598       81.92162       58.90623
N         51.61598       84.60660       58.06637
C         50.28260       84.79887       57.46956
C         49.78853       86.25711       57.47653
O         48.67897       86.48703       57.01533
C         49.26193       83.87850       58.17649
C         49.10443       84.14008       59.64131
O         49.80359       85.11259       60.24206
O         48.38481       83.41714       60.31142
H         51.77428       84.95775       59.01208
H         50.29119       84.46671       56.40880
H         49.60807       82.82789       58.06018
H         48.26669       83.96554       57.69041
N         50.54460       87.29296       57.94370
C         50.13287       88.69392       57.88086
C         49.01685       89.13980       58.82480
O         48.66104       90.30731       58.74502
H         51.50093       87.10397       58.25787
H         49.84022       88.92669       56.83416
H         51.01162       89.32808       58.12324
N         48.41206       88.31740       59.73161
C         47.29799       88.75491       60.58919
C         47.67413       89.76167       61.70157
O         46.78450       90.13071       62.45657
C         46.56357       87.52588       61.18696
C         47.36680       86.72218       62.16997
N         46.82918       85.63022       62.75896
O         48.50487       87.05379       62.44362
H         48.69678       87.33043       59.75968
H         46.53876       89.23967       59.93556
H         46.25399       86.85636       60.35488
H         45.64166       87.87074       61.70389
H         45.86853       85.33154       62.53799
H         47.37461       85.08257       63.44002
N         48.93361       90.27229       61.85850
C         49.28591       91.27014       62.86953
C         49.48452       90.73911       64.28803
O         49.81804       91.53955       65.14986
H         49.66372       90.02838       61.18008
H         48.53359       92.09037       62.86041
H         50.25999       91.72040       62.58164
N         49.31664       89.42598       64.61131
C         49.50740       88.86157       65.94849
C         50.46359       87.67453       65.92595
O         50.26648       86.76271       65.13590
C         48.15257       88.37493       66.51866
C         47.24350       89.54646       66.88467
O         47.48342       87.54393       65.60220
H         49.00576       88.78681       63.88003
H         49.90421       89.61752       66.66241
H         48.33184       87.82901       67.47704
H         47.80923       86.61833       65.74672
H         47.00674       90.16246       65.99322
H         46.29806       89.16003       67.32140
H         47.73958       90.18442       67.64868
N         51.45354       87.56672       66.86283
C         52.23816       86.34378       67.05687
C         51.29444       85.19905       67.40456
O         50.47423       85.34611       68.29914
C         53.30831       86.50832       68.19104
C         54.37115       87.56144       67.77940
C         53.98966       85.15426       68.50621
C         55.44742       87.80739       68.84272
H         51.58928       88.34736       67.52238
H         52.78936       86.09491       66.12441
H         52.79873       86.84557       69.12141
H         53.87050       88.53262       67.58917
H         54.87379       87.24222       66.84010
H         53.24538       84.41949       68.86552
H         54.50471       84.74739       67.60966
H         54.71289       85.23720       69.33948
H         56.07183       86.90612       69.01035
H         56.13134       88.60981       68.49702
H         54.98242       88.11884       69.80159
N         51.43963       83.99370       66.78528
C         50.65187       82.80673       67.11376
C         51.53019       81.84633       67.87969
O         52.69765       82.14136       68.08117
C         50.17270       82.09757       65.83299
C         49.56073       83.02587       64.84780
O         50.32267       84.02641       64.38628
O         48.45085       82.82211       64.38339
H         52.20091       83.88754       66.10264
H         49.77995       83.08472       67.74372
H         49.47561       81.26683       66.07746
H         51.05735       81.66708       65.31232
N         51.03877       80.66838       68.35536
C         51.90312       79.75533       69.08312
C         52.99203       79.17307       68.18160
O         54.13939       79.22736       68.60425
C         51.12187       78.67807       69.85668
C         52.07884       77.90791       70.73868
C         52.80008       78.56636       71.75667
C         52.28503       76.53617       70.53309
C         53.72072       77.86654       72.53689
C         53.20585       75.83864       71.32069
C         53.92577       76.50363       72.31787
H         50.04067       80.44513       68.23622
H         52.39458       80.36266       69.87327
H         50.58627       78.00252       69.16636
H         50.35852       79.16349       70.50332
H         52.66235       79.62398       71.94505
H         51.74498       76.01138       69.75539
H         54.27817       78.38452       73.30723
H         53.36693       74.78291       71.15212
H         54.64360       75.96419       72.92077
N         52.77360       78.62260       66.94077
C         53.84379       78.12706       66.07788
C         54.88060       79.16816       65.65343
O         55.83818       78.78996       64.99646
C         53.11376       77.65051       64.81562
C         51.76519       77.24847       65.36155
C         51.47746       78.38839       66.33564
H         54.33131       77.28263       66.61615
H         52.91938       78.52448       64.14913
H         53.65683       76.87869       64.22897
H         50.97926       77.08707       64.59342
H         51.90307       76.30875       65.94381
H         51.16353       79.30746       65.79879
H         50.69359       78.05381       67.03438
N         54.73452       80.49310       65.95570
C         55.66180       81.53895       65.53408
C         56.38826       82.15324       66.72631
O         57.28286       82.95863       66.50345
C         54.87427       82.64464       64.80174
C         54.07588       82.12051       63.59560
C         53.19387       83.17548       62.98378
O         52.47240       82.88112       62.04515
O         53.15868       84.42995       63.47397
H         53.91141       80.79826       66.47977
H         56.43677       81.11562       64.85903
H         55.56229       83.45267       64.47359
H         54.16531       83.08074       65.53249
H         53.40876       81.29425       63.92017
H         54.77729       81.73392       62.82567
N         56.06503       81.83358       68.01247
C         56.73987       82.35477       69.17982
H         57.58312       83.02483       68.91841
H         56.01139       82.91402       69.80365
H         57.13368       81.50325       69.77493
H         55.29241       81.19459       68.20394
Ca        49.96858       84.88651       62.41557
O         51.34592       88.26439       62.63927
H         50.95973       88.27519       61.72882
H         51.81585       89.13186       62.72107
O         53.90755       87.56521       63.87202
H         54.18230       86.70334       64.27113
H         54.76069       88.03368       63.69537

Ca 1.0



