%chk=holoCaM-CaMKII.loop1.water2.frame368.chk
%nprocshared=20
%mem=10GB
%nosave
#b3lyp/svp scf=(tight,noincore,xqc) Test 
#IOP(5/87=12) Density=Current Pop=(MK,readradii) iop(6/33=2) iop(6/42=6)

holoCaM-CaMKII.loop1.water2.frame368 

   0  1 
C         48.47918       74.95942       39.12204
C         48.68933       75.85821       40.30153
O         47.93116       76.79247       40.48218
H         47.61629       75.30270       38.51263
H         49.38762       74.95877       38.48400
H         48.27818       73.92829       39.47989
N         49.73807       75.65266       41.13725
C         50.01592       76.47670       42.30577
C         51.07215       77.49981       41.92415
O         52.19062       77.46123       42.41526
C         50.37346       75.53639       43.47763
C         50.71390       76.25255       44.74851
O         49.90999       77.00027       45.27412
O         51.90439       76.03752       45.33520
H         50.40403       74.89965       40.90441
H         49.11910       77.06042       42.61416
H         51.23329       74.89376       43.19254
H         49.50132       74.87764       43.67984
N         50.74432       78.46323       41.01187
C         51.66153       79.48779       40.51912
C         52.06162       80.50895       41.57973
O         52.91626       81.32929       41.27286
C         51.01453       80.26181       39.34351
C         50.73522       79.37710       38.11654
C         50.03819       80.19405       37.01702
C         49.84468       79.41715       35.70381
N         48.99668       78.23450       35.86323
H         49.78954       78.44813       40.62792
H         52.58166       78.98410       40.14817
H         51.69707       81.07657       39.01357
H         50.06736       80.72692       39.69923
H         50.08643       78.52346       38.39766
H         51.70168       78.98136       37.73527
H         50.65830       81.08717       36.78394
H         49.05049       80.54637       37.38886
H         50.83500       79.11539       35.29704
H         49.36853       80.10381       34.96867
H         49.46396       77.52331       36.46909
H         48.07138       78.50274       36.26983
H         48.84030       77.80453       34.92294
N         51.49463       80.55224       42.82189
C         51.86734       81.54485       43.83101
C         52.55365       80.90935       45.03111
O         53.00254       81.64469       45.89988
C         50.63447       82.37970       44.22607
C         49.51888       81.54138       44.78140
O         49.69258       80.84266       45.91780
O         48.44879       81.48985       44.19805
H         50.76514       79.86939       43.07075
H         52.61397       82.25569       43.41531
H         50.27100       82.90796       43.31677
H         50.91579       83.15114       44.97503
N         52.72109       79.56114       45.13011
C         53.48530       78.92596       46.18206
C         52.90678       79.15146       47.55167
O         53.63317       79.60899       48.42206
H         52.33764       78.93810       44.41038
H         54.53779       79.28082       46.14119
H         53.50242       77.83219       45.99988
N         51.62079       78.79610       47.82954
C         51.06949       78.81555       49.18241
C         50.74821       77.40527       49.67039
O         50.42330       77.26294       50.84166
C         49.86741       79.78441       49.29838
C         48.65223       79.46101       48.46793
O         48.62493       78.49713       47.72532
O         47.57348       80.26332       48.54120
H         51.03644       78.45012       47.05671
H         51.83845       79.19831       49.88758
H         50.21030       80.80210       49.01295
H         49.54662       79.81880       50.36186
N         50.82915       76.31455       48.84864
C         50.61939       74.94800       49.28880
C         49.32745       74.36042       48.76584
O         49.11082       73.17929       48.98539
H         51.04874       76.42751       47.85123
H         50.58515       74.87240       50.39702
H         51.48397       74.34115       48.94178
N         48.38015       75.13714       48.15699
C         47.05679       74.63982       47.79547
C         46.67407       74.99561       46.36869
O         47.34643       75.77106       45.71090
C         46.00070       75.21259       48.77502
C         46.17680       74.66281       50.19776
O         46.01660       76.62041       48.77412
H         48.55625       76.13723       48.03555
H         47.03502       73.53073       47.86497
H         44.98843       74.88876       48.45154
H         46.78957       76.92637       49.31855
H         46.08235       73.55604       50.18713
H         47.16854       74.93487       50.61614
H         45.38638       75.07743       50.85821
N         45.57590       74.39153       45.83048
C         45.06206       74.61651       44.48484
C         43.56156       74.86893       44.59444
O         42.86986       74.04173       45.16968
C         45.35776       73.35746       43.61084
C         46.89442       73.17624       43.45971
C         44.68762       73.47321       42.22451
C         47.30891       71.88244       42.75766
H         45.09771       73.67768       46.39961
H         45.55919       75.48397       43.99489
H         44.93614       72.46517       44.12555
H         47.36618       73.14335       44.46355
H         47.31950       74.04267       42.90611
H         43.58761       73.57193       42.32519
H         45.07682       74.35343       41.66949
H         44.85366       72.56000       41.61994
H         46.94648       71.84367       41.71183
H         48.41794       71.82369       42.72815
H         46.92429       71.00475       43.31905
N         42.98411       75.95504       44.00079
C         41.53565       76.17735       43.99278
C         40.95830       75.83419       42.62853
O         41.69934       75.51117       41.71342
C         41.17645       77.64504       44.36880
C         41.66523       78.05513       45.75925
O         41.62988       78.55154       43.39446
H         43.58424       76.59249       43.46638
H         41.04194       75.49838       44.72104
H         40.07105       77.74231       44.40085
H         42.61117       78.63788       43.48637
H         42.76936       78.00994       45.80935
H         41.34299       79.09822       45.97056
H         41.23369       77.38626       46.53214
N         39.60903       75.88810       42.43702
C         38.95636       75.65456       41.14942
C         39.43980       76.65434       40.11983
O         39.66257       76.27323       38.97916
C         37.41684       75.76188       41.27493
C         36.84318       74.64486       42.15479
O         37.05967       77.01818       41.79456
H         39.02114       76.13532       43.24503
H         39.18889       74.62866       40.78382
H         36.98812       75.64159       40.25147
H         36.09923       77.15574       41.58576
H         35.73641       74.72541       42.18663
H         37.10810       73.65329       41.72957
H         37.22855       74.70462       43.19308
N         39.63454       77.95612       40.46472
C         40.13425       78.96585       39.53987
C         41.50993       78.56358       39.03384
O         41.70801       78.48155       37.83011
C         40.18599       80.35972       40.21848
C         38.78703       80.81676       40.68216
C         38.79500       82.24546       41.24484
C         37.40411       82.69081       41.74033
N         36.98483       81.97797       42.95121
H         39.44633       78.22482       41.44107
H         39.44025       79.05043       38.67402
H         40.57610       81.09432       39.47985
H         40.87585       80.34586       41.09192
H         38.41868       80.12321       41.45876
H         38.08665       80.78462       39.81925
H         39.10777       82.93034       40.42663
H         39.52641       82.34024       42.07663
H         36.64944       82.55105       40.93424
H         37.44969       83.77653       41.97667
H         37.67586       82.14347       43.71904
H         36.05498       82.34544       43.25709
H         36.88446       80.95352       42.78001
N         42.50397       78.27499       39.91741
C         43.86134       77.89992       39.52243
C         43.93775       76.56175       38.79045
O         44.99839       76.26013       38.26026
C         44.75135       77.81784       40.77411
C         44.90816       79.18086       41.46234
C         45.60404       79.05751       42.78269
O         46.85887       78.58887       42.86788
O         45.03209       79.40725       43.80186
H         42.27857       78.34675       40.91910
H         44.25958       78.68787       38.84513
H         45.74892       77.45868       40.49675
H         44.30543       77.07233       41.46135
H         43.91647       79.63816       41.64901
H         45.48114       79.86528       40.80147
N         42.88720       75.69580       38.74597
C         42.92429       74.41548       38.06801
H         42.11380       74.38052       37.31009
H         43.89130       74.23139       37.55513
H         42.75748       73.60340       38.80690
H         42.01993       75.92970       39.23420
Ca        47.72733       78.63442       44.94165
O         45.21891       78.63427       46.83528
H         44.48497       78.53386       47.49251
H         45.12306       77.85435       46.23219
O         45.88649       81.56407       45.51338
H         45.13495       81.73905       46.13255
H         46.17812       82.46178       45.21474

Ca 1.0



