%chk=holoCaM-CaMKII.loop1.water2.frame300.chk
%nprocshared=20
%mem=10GB
%nosave
#b3lyp/svp scf=(tight,noincore,xqc) Test 
#IOP(5/87=12) Density=Current Pop=(MK,readradii) iop(6/33=2) iop(6/42=6)

holoCaM-CaMKII.loop1.water2.frame300 

   0  1 
C         66.00675       15.40759       72.30001
C         67.00122       14.30701       72.17409
O         66.80733       13.23227       72.72470
H         65.13611       15.08633       72.90528
H         66.51052       16.25689       72.81112
H         65.67675       15.73197       71.29217
N         68.12410       14.52276       71.45292
C         69.21048       13.57452       71.42362
C         69.91790       13.58612       72.78693
O         70.30028       14.65951       73.23205
C         70.18908       13.96833       70.31299
C         71.20690       12.90836       70.16318
O         71.03525       11.74472       70.80198
O         72.13074       13.06259       69.40474
H         68.21599       15.40738       70.92878
H         68.80218       12.56706       71.16479
H         70.65983       14.94782       70.54147
H         69.66374       14.03892       69.33350
N         70.13115       12.43688       73.49513
C         70.63739       12.40845       74.87339
C         72.12550       12.11386       75.02155
O         72.63597       12.36368       76.10607
C         69.85392       11.37623       75.70074
C         68.32740       11.55598       75.78342
C         67.88092       12.78481       76.59403
C         67.75108       14.06960       75.76221
N         67.37142       15.20328       76.59871
H         69.82869       11.55980       73.06508
H         70.54360       13.41617       75.31639
H         70.25365       11.34091       76.73725
H         70.04807       10.37909       75.25397
H         67.97833       10.66177       76.34469
H         67.83241       11.52128       74.78852
H         68.55444       12.91525       77.46876
H         66.86028       12.57773       76.98167
H         66.95827       13.90272       75.01061
H         68.67200       14.33517       75.22552
H         67.17327       16.02457       75.98220
H         66.51370       14.97765       77.15179
H         68.16035       15.44370       77.24186
N         72.89335       11.61158       74.01784
C         74.35471       11.51968       74.11051
C         75.01332       12.41094       73.06136
O         76.23464       12.44419       73.00415
C         74.88030       10.05252       74.15651
C         74.47051        9.09462       73.08024
O         74.88501        7.94787       73.09511
O         73.59091        9.44864       72.15272
H         72.43480       11.34763       73.13613
H         74.71422       11.94516       75.07268
H         74.53927        9.60153       75.11284
H         75.99114       10.08129       74.17339
N         74.27320       13.22887       72.25349
C         74.84250       14.18220       71.32185
C         75.71661       13.51283       70.29725
O         76.82717       13.97161       70.07310
H         73.24573       13.22678       72.30525
H         75.41052       14.96718       71.86740
H         74.00393       14.68920       70.79195
N         75.25003       12.43943       69.60574
C         75.97365       11.79460       68.51460
C         75.34158       12.15337       67.16312
O         75.88934       11.77849       66.13729
C         76.05885       10.26855       68.78843
C         74.73275        9.55930       68.85163
O         74.66176        8.30330       69.33044
O         73.71714       10.10371       68.46787
H         74.31066       12.09211       69.84137
H         77.01473       12.18235       68.47905
H         76.55301       10.13801       69.77513
H         76.67575        9.75460       68.02212
N         74.20101       12.90640       67.09980
C         73.53903       13.38385       65.90036
C         72.15779       12.76998       65.67545
O         71.49781       13.19309       64.73821
H         73.77071       13.21574       67.96129
H         74.15534       13.18964       65.00000
H         73.43001       14.48624       66.00825
N         71.68695       11.72706       66.42403
C         70.47577       10.96357       66.10225
C         69.64816       10.62461       67.34246
O         70.08816       10.84690       68.45611
C         70.87634        9.66379       65.33783
C         71.03035        9.89836       63.83232
O         72.05522        9.09874       65.85984
H         72.28453       11.35609       67.16501
H         69.79502       11.56748       65.46312
H         70.06921        8.90422       65.42010
H         72.82774        9.65077       65.56104
H         71.77365       10.69248       63.61997
H         71.35880        8.95564       63.34392
H         70.04751       10.18764       63.40227
N         68.39205       10.10359       67.18963
C         67.47162        9.78301       68.28332
C         67.10077        8.30155       68.16826
O         66.60074        7.89141       67.12990
C         66.19873       10.68440       68.17634
C         66.56391       12.19516       68.19003
C         65.19146       10.38376       69.31147
C         65.42913       13.07326       67.65401
H         68.04340        9.96013       66.22937
H         67.94378        9.98441       69.27080
H         65.72504       10.44997       67.19801
H         67.42293       12.39094       67.51755
H         66.85979       12.51644       69.21455
H         65.62810       10.63854       70.30238
H         64.25527       10.96531       69.18916
H         64.90246        9.31475       69.32068
H         65.20178       12.77871       66.60565
H         64.50588       12.99007       68.25947
H         65.74849       14.13662       67.64930
N         67.29690        7.45049       69.21346
C         66.94947        6.02664       69.20547
C         65.56904        5.82206       69.78719
O         64.96144        6.77583       70.23141
C         67.98528        5.21469       70.04321
C         69.36986        5.22675       69.40626
O         68.04807        5.68903       71.36431
H         67.63634        7.85342       70.08755
H         66.92154        5.64103       68.16384
H         67.68890        4.14786       70.10679
H         68.74976        6.38636       71.42101
H         69.34752        4.70873       68.42766
H         69.67606        6.27684       69.27286
H         70.09824        4.72046       70.07728
N         65.00774        4.58301       69.83131
C         63.75261        4.31348       70.53350
C         63.92748        4.62945       72.00876
O         63.02106        5.16370       72.63123
C         63.31642        2.83655       70.37483
C         63.03169        2.48019       68.91151
O         64.30337        1.97870       70.88872
H         65.52231        3.79995       69.40244
H         62.93784        4.94766       70.11680
H         62.36791        2.70770       70.95072
H         63.84950        1.12695       71.12291
H         63.93517        2.60652       68.28047
H         62.70836        1.42039       68.84245
H         62.22018        3.12351       68.51048
N         65.10631        4.33160       72.61785
C         65.40224        4.60027       74.01571
C         65.29084        6.08441       74.33052
O         64.67089        6.44377       75.32071
C         66.80170        4.00113       74.32692
C         67.24302        4.01036       75.79854
C         66.19953        3.46746       76.79758
C         65.55200        2.10455       76.45866
N         66.51222        1.00903       76.36993
H         65.84401        3.88726       72.04757
H         64.65419        4.06878       74.62689
H         67.59102        4.49441       73.71632
H         66.77667        2.93493       74.00988
H         67.50121        5.04783       76.10199
H         68.17675        3.40770       75.86872
H         65.37789        4.21095       76.86469
H         66.67623        3.41681       77.80011
H         64.98848        2.15484       75.50697
H         64.80820        1.87443       77.25308
H         66.98286        0.86666       77.29112
H         65.99022        0.13842       76.11457
H         67.21779        1.19669       75.62338
N         65.85993        7.00122       73.50917
C         65.83966        8.44479       73.73384
C         64.42787        9.00041       73.55852
O         63.90601        9.57963       74.50042
C         66.91339        9.10272       72.83024
C         68.30637        8.56535       73.26583
C         69.46968        8.98725       72.41781
O         70.61092        9.37516       73.01285
O         69.45615        8.83405       71.20993
H         66.34511        6.64362       72.67930
H         66.16219        8.65832       74.77659
H         66.89839       10.20814       72.92163
H         66.69527        8.84699       71.77486
H         68.31077        7.46294       73.26629
H         68.50240        8.85856       74.31723
N         63.72866        8.82514       72.40442
C         62.35315        9.25027       72.23769
H         61.70796        8.75376       72.99474
H         62.27060       10.35167       72.33855
H         61.98326        8.95578       71.23007
H         64.17121        8.34578       71.62311
Ca        72.16826        9.90076       70.57385
O         71.83307        6.95379       71.74497
H         71.55710        6.03986       72.00301
H         72.81925        6.94165       71.81350
O         71.62242        7.49892       68.63432
H         71.56014        6.69373       68.06153
H         71.68001        8.24730       67.99762

Ca 1.0



