%chk=holoCaM-CaMKII.loop1.water2.frame16.chk
%nprocshared=20
%mem=10GB
%nosave
#b3lyp/svp scf=(tight,noincore,xqc) Test 
#IOP(5/87=12) Density=Current Pop=(MK,readradii) iop(6/33=2) iop(6/42=6)

holoCaM-CaMKII.loop1.water2.frame16 

   0  1 
C         44.06045       58.17516       -5.05846
C         44.48404       57.42667       -6.28877
O         43.66406       56.76921       -6.91021
H         42.98005       58.02656       -4.85034
H         44.64803       57.81963       -4.18565
H         44.25091       59.26065       -5.20194
N         45.77678       57.49783       -6.70010
C         46.29312       56.84675       -7.90009
C         46.14434       55.33195       -7.82485
O         46.64344       54.73026       -6.88470
C         47.76550       57.26403       -8.09147
C         48.39502       56.68621       -9.32161
O         49.51517       55.95205       -9.20891
O         47.92220       56.90582      -10.42412
H         46.42098       58.07412       -6.13475
H         45.73532       57.22587       -8.77538
H         48.35916       56.95859       -7.20271
H         47.81069       58.37208       -8.17696
N         45.48846       54.65349       -8.81527
C         45.31733       53.20211       -8.83860
C         46.07694       52.56206      -10.00218
O         45.86872       51.38045      -10.24503
C         43.81509       52.82995       -8.93081
C         42.97666       53.39495       -7.77148
C         41.52021       52.88142       -7.77619
C         41.35061       51.37982       -7.44867
N         41.77766       51.05544       -6.08450
H         45.10667       55.18572       -9.61135
H         45.70728       52.73610       -7.90821
H         43.75174       51.72299       -8.90954
H         43.38374       53.18363       -9.89460
H         42.95191       54.49805       -7.88325
H         43.45021       53.16646       -6.79565
H         41.07159       53.08771       -8.77248
H         40.93899       53.45560       -7.02259
H         41.89415       50.74166       -8.17611
H         40.27064       51.12932       -7.54365
H         42.80416       51.20472       -5.96677
H         41.25022       51.63825       -5.39407
H         41.57320       50.04799       -5.89260
N         46.99932       53.24604      -10.74476
C         47.66753       52.64695      -11.90228
C         49.04638       53.26472      -12.19244
O         49.50491       53.19013      -13.32422
C         46.70251       52.66260      -13.11748
C         46.12616       54.03953      -13.29032
O         46.96623       55.07680      -13.37068
O         44.92254       54.22913      -13.22280
H         47.21926       54.22387      -10.50919
H         47.92593       51.59000      -11.67278
H         45.86338       51.95623      -12.93908
H         47.22973       52.33038      -14.03755
N         49.83663       53.71304      -11.17348
C         51.25577       54.04608      -11.29342
C         51.66796       55.20087      -12.19979
O         52.86416       55.45354      -12.25059
H         49.45083       53.70543      -10.21927
H         51.79440       53.13896      -11.64305
H         51.63724       54.28228      -10.27527
N         50.80080       55.92382      -12.96569
C         51.26179       56.94562      -13.91826
C         51.69895       58.26637      -13.28139
O         52.05119       59.17136      -14.02615
C         50.23045       57.15671      -15.04742
C         48.87271       57.62233      -14.62658
O         48.57462       57.86601      -13.34036
O         47.98326       57.66548      -15.46117
H         49.80484       55.67166      -12.95106
H         52.14629       56.54093      -14.46109
H         50.09139       56.17036      -15.54503
H         50.63265       57.85998      -15.80749
N         51.76683       58.44493      -11.93074
C         52.28350       59.66160      -11.31881
C         51.28483       60.79851      -11.24022
O         51.63770       61.81312      -10.65343
H         51.54657       57.66454      -11.29900
H         53.22047       59.98164      -11.82864
H         52.55226       59.42577      -10.26738
N         50.03083       60.72053      -11.77159
C         49.02553       61.77075      -11.61305
C         47.73156       61.20947      -11.03498
O         47.59379       59.99974      -10.89477
C         48.77329       62.49473      -12.96248
C         49.93449       63.41880      -13.34647
O         48.50681       61.58405      -13.99820
H         49.76345       59.88327      -12.30650
H         49.37075       62.53305      -10.88001
H         47.89172       63.16289      -12.86058
H         49.36072       61.15136      -14.26434
H         50.07674       64.18870      -12.55804
H         50.87791       62.84865      -13.47182
H         49.69453       63.93768      -14.29917
N         46.74286       62.06703      -10.64531
C         45.45529       61.65458      -10.09520
C         44.36169       62.21784      -10.99084
O         44.21523       63.43257      -11.05306
C         45.31097       62.17132       -8.62628
C         46.38875       61.52659       -7.71450
C         43.89735       61.90175       -8.06594
C         46.46403       62.15392       -6.31829
H         46.91358       63.08141      -10.73532
H         45.37669       60.54720      -10.08141
H         45.47045       63.27324       -8.63915
H         47.39188       61.66297       -8.16992
H         46.19828       60.43448       -7.62134
H         43.12700       62.39895       -8.68601
H         43.68623       60.81249       -8.03288
H         43.77453       62.32499       -7.04981
H         47.27234       61.66379       -5.73594
H         46.69894       63.23691       -6.40119
H         45.52232       62.02695       -5.74906
N         43.56588       61.39480      -11.73311
C         42.48789       61.90264      -12.58473
C         41.32990       62.42005      -11.74205
O         41.35692       62.28854      -10.53092
C         41.96348       60.81815      -13.57119
C         43.03688       60.33968      -14.55232
O         41.38724       59.73214      -12.89365
H         43.76184       60.38535      -11.71297
H         42.88961       62.73725      -13.20128
H         41.16973       61.26589      -14.20410
H         42.11382       59.12629      -12.59984
H         43.45707       61.19994      -15.11521
H         43.84264       59.81827      -14.00590
H         42.59387       59.62117      -15.27318
N         40.25896       63.01364      -12.33651
C         39.06249       63.43733      -11.61019
C         38.35034       62.21079      -11.03843
O         38.02756       62.19458       -9.85949
C         38.12961       64.22935      -12.55941
C         36.94390       64.84869      -11.81318
O         38.86317       65.27391      -13.15156
H         40.29142       63.15785      -13.35682
H         39.35720       64.13620      -10.79403
H         37.74576       63.53226      -13.34330
H         38.62841       65.29424      -14.11616
H         37.30947       65.55460      -11.03522
H         36.30983       65.41655      -12.52688
H         36.32052       64.06905      -11.33004
N         38.13855       61.12122      -11.83541
C         37.52511       59.85603      -11.41563
C         38.16637       59.32217      -10.14470
O         37.46049       59.07523       -9.17696
C         37.68742       58.83214      -12.57318
C         37.20677       57.39639      -12.28688
C         35.70915       57.24505      -11.98999
C         34.82058       57.67984      -13.16532
N         33.41288       57.40864      -12.87876
H         38.48790       61.18301      -12.80460
H         36.44292       60.01957      -11.21819
H         38.76869       58.75346      -12.82090
H         37.18245       59.22394      -13.48111
H         37.78153       56.98490      -11.42938
H         37.45236       56.76977      -13.17281
H         35.44022       57.81481      -11.07583
H         35.52253       56.16689      -11.78997
H         35.11693       57.12278      -14.08237
H         34.94771       58.76698      -13.35584
H         33.26703       56.38168      -12.74229
H         33.11415       57.92508      -12.01991
H         32.83150       57.72663      -13.68743
N         39.51010       59.14003      -10.08204
C         40.22530       58.65592       -8.90453
C         39.92278       59.53344       -7.70407
O         39.48108       59.01010       -6.69003
C         41.73766       58.60294       -9.21529
C         42.03596       57.45548      -10.20678
C         43.45307       57.42344      -10.70062
O         44.26007       58.27379      -10.36760
O         43.82760       56.45537      -11.55690
H         40.05271       59.39650      -10.91495
H         39.89366       57.62306       -8.65201
H         42.31757       58.41533       -8.28910
H         42.05935       59.58580       -9.62805
H         41.38443       57.53119      -11.09962
H         41.81361       56.48856       -9.70540
N         40.07843       60.88089       -7.76018
C         39.72015       61.74608       -6.65865
H         38.64571       61.60939       -6.40691
H         40.34346       61.51176       -5.77116
H         39.87897       62.80751       -6.94489
H         40.42144       61.31041       -8.62369
Ca        46.48160       57.22185      -12.94356
O         46.18108       60.30053      -14.08413
H         46.89218       59.65239      -13.86617
H         46.14853       60.30521      -15.07328
O         44.55638       57.21619      -15.25806
H         45.07216       58.00897      -15.55049
H         45.20433       56.46914      -15.30728

Ca 1.0



