%chk=holoCaM-CaMKII.loop1.water2.frame164.chk
%nprocshared=20
%mem=10GB
%nosave
#b3lyp/svp scf=(tight,noincore,xqc) Test 
#IOP(5/87=12) Density=Current Pop=(MK,readradii) iop(6/33=2) iop(6/42=6)

holoCaM-CaMKII.loop1.water2.frame164 

   0  1 
C         97.59599       71.61466       11.11367
C         97.18283       73.00488       10.74149
O         97.25865       73.88374       11.58852
H         98.66157       71.62789       11.42901
H         96.97052       71.25255       11.95449
H         97.49339       70.91722       10.25646
N         96.77939       73.29567        9.47259
C         96.49131       74.65962        9.05842
C         95.18760       75.14593        9.69358
O         94.13391       74.68291        9.27608
C         96.41067       74.72565        7.51330
C         96.50577       76.12279        6.99377
O         96.79888       77.13242        7.83073
O         96.42340       76.33129        5.79493
H         96.77178       72.54006        8.76925
H         97.36181       75.27111        9.38610
H         95.48052       74.23153        7.15523
H         97.27156       74.18057        7.06815
N         95.17399       76.01948       10.74771
C         93.92817       76.36971       11.43302
C         93.16034       77.51025       10.77570
O         92.01422       77.69732       11.16261
C         94.14881       76.78043       12.90463
C         94.77952       75.69702       13.78785
C         94.70611       76.14619       15.25976
C         95.30292       75.13989       16.25233
N         96.75541       75.02999       16.11845
H         96.07144       76.30296       11.16186
H         93.27613       75.46655       11.44929
H         93.14684       77.01010       13.33311
H         94.76701       77.70469       12.95607
H         95.82696       75.52706       13.46543
H         94.20959       74.74787       13.68237
H         93.63170       76.27175       15.52294
H         95.20773       77.12970       15.39152
H         94.82542       74.14319       16.12441
H         95.07139       75.49943       17.28009
H         97.01499       74.63499       15.18766
H         97.19661       75.97048       16.24373
H         97.11535       74.39143       16.86376
N         93.71187       78.35840        9.85529
C         92.97595       79.51256        9.32161
C         92.68145       79.38357        7.82890
O         92.01856       80.25812        7.28876
C         93.64496       80.84541        9.74354
C         95.01345       81.10864        9.19900
O         95.66556       82.23412        9.54796
O         95.54061       80.32444        8.43903
H         94.68446       78.20650        9.55054
H         91.96866       79.56426        9.78689
H         93.71582       80.85790       10.85340
H         92.99467       81.69146        9.43455
N         93.02423       78.26271        7.13116
C         92.50751       77.95242        5.80866
C         93.00670       78.82656        4.68542
O         92.19280       79.38212        3.96166
H         93.56409       77.51664        7.59211
H         91.39568       77.96657        5.84266
H         92.81317       76.91420        5.55410
N         94.33710       78.90346        4.41974
C         94.89431       79.48525        3.19838
C         95.69448       78.41671        2.42748
O         96.32413       78.75666        1.43565
C         95.71685       80.75067        3.53934
C         96.83632       80.43440        4.46453
O         97.70230       79.65899        4.11789
O         96.81991       80.86723        5.73020
H         94.99038       78.46185        5.08503
H         94.08811       79.83608        2.51742
H         95.03808       81.48132        4.03095
H         96.11952       81.22122        2.61663
N         95.66103       77.09349        2.79062
C         96.30475       76.01907        2.04790
C         97.78352       75.81031        2.33752
O         98.32939       74.87618        1.76860
H         95.04384       76.79164        3.55642
H         96.12204       76.15070        0.95894
H         95.81237       75.06491        2.34042
N         98.50096       76.59888        3.19365
C         99.92320       76.37786        3.49332
C        100.16203       76.27503        4.99928
O         99.23666       76.50923        5.76085
C        100.77893       77.50784        2.87604
C        100.64827       77.54340        1.34182
O        100.45857       78.75376        3.44483
H         98.03119       77.39039        3.64073
H        100.25962       75.41741        3.04591
H        101.84933       77.31009        3.09530
H         99.74060       79.17425        2.90568
H        100.96967       76.57438        0.90663
H         99.59786       77.74031        1.03497
H        101.28831       78.35178        0.93058
N        101.38107       75.89112        5.50100
C        101.63690       75.74616        6.93814
C        102.88417       76.53778        7.33405
O        103.96786       76.18162        6.89113
C        101.82932       74.24234        7.32367
C        100.70018       73.35082        6.74402
C        101.90529       74.10093        8.85981
C        100.90328       71.85620        7.01551
H        102.13386       75.64181        4.84231
H        100.76148       76.12117        7.50763
H        102.78503       73.88460        6.87878
H        100.68641       73.46519        5.63896
H         99.71271       73.66728        7.14142
H        102.13082       73.06073        9.16547
H        102.71681       74.72452        9.27651
H        100.94494       74.41269        9.32540
H        100.83431       71.62412        8.09707
H        100.11058       71.27456        6.50054
H        101.89121       71.52384        6.62943
N        102.81549       77.61199        8.17534
C        104.01258       78.31931        8.64583
C        104.72434       77.52391        9.73517
O        104.20937       76.51639       10.19119
C        103.67159       79.73115        9.21151
C        103.12607       80.68021        8.14276
O        102.80332       79.65230       10.31485
H        101.88777       77.93597        8.47390
H        104.70471       78.46723        7.78733
H        104.60432       80.21643        9.56770
H        101.87054       79.59977        9.98283
H        103.85760       80.78940        7.31467
H        102.17771       80.29019        7.74310
H        102.93840       81.68035        8.58846
N        105.90892       77.97204       10.23769
C        106.56476       77.40103       11.41503
C        105.67977       77.57378       12.63969
O        105.55745       76.65247       13.43375
C        107.92157       78.10412       11.69175
C        108.93698       77.83615       10.57620
O        107.73448       79.48963       11.84503
H        106.33448       78.79945        9.79471
H        106.77899       76.31924       11.26160
H        108.33500       77.67550       12.63622
H        108.53524       79.84217       12.31416
H        109.10989       76.74379       10.47443
H        108.58558       78.23922        9.60449
H        109.90449       78.31995       10.82799
N        105.04117       78.75903       12.84309
C        104.23389       79.08447       14.01470
C        103.13008       78.06115       14.20624
O        103.02628       77.49469       15.28543
C        103.64917       80.52183       13.90210
C        104.69678       81.63152       13.62165
C        105.83143       81.70038       14.65504
C        106.90896       82.70244       14.21468
N        107.99238       82.77238       15.19443
H        105.13961       79.46365       12.10394
H        104.87997       79.05476       14.91785
H        103.11366       80.76081       14.84687
H        102.90784       80.55567       13.07365
H        104.17767       82.61394       13.58394
H        105.14184       81.48666       12.61831
H        106.33085       80.71416       14.74187
H        105.41236       81.98413       15.64455
H        106.46404       83.71267       14.08125
H        107.32910       82.37290       13.23653
H        108.41402       81.82560       15.33781
H        108.73349       83.41906       14.83951
H        107.62757       83.13833       16.10335
N        102.31094       77.72796       13.17098
C        101.29062       76.68525       13.25046
C        101.92915       75.36851       13.65835
O        101.51779       74.80473       14.66293
C        100.53854       76.55325       11.90351
C         99.73101       77.83205       11.60809
C         98.97100       77.75698       10.31997
O         99.55239       77.58562        9.26279
O         97.64053       77.94313       10.32156
H        102.46203       78.20576       12.27386
H        100.53901       76.95781       14.02541
H         99.82919       75.69783       11.95915
H        101.26290       76.35309       11.08171
H        100.39999       78.71077       11.55215
H         99.00875       78.00348       12.43543
N        102.97651       74.85145       12.95830
C        103.68206       73.64527       13.34485
H        104.74322       73.89600       13.55887
H        103.25190       73.17295       14.25299
H        103.64870       72.91208       12.51350
H        103.31990       75.35336       12.13103
Ca        97.34754       79.13073        7.02128
O         99.02489       81.21506        8.60163
H         98.42128       81.11631        9.38013
H         99.02186       82.18542        8.40466
O        100.45443       79.82436        6.13762
H        100.48828       80.81353        6.11200
H         99.56173       79.60103        5.78527

Ca 1.0



