%chk=holoCaM.loop2.water2.frame431.chk
%nprocshared=20
%mem=10GB
%nosave
#b3lyp/svp scf=(tight,noincore,xqc) Test 
#IOP(5/87=12) Density=Current Pop=(MK,readradii) iop(6/33=2) iop(6/42=6)

holoCaM.loop2.water2.frame431 

   -2  1 
C        -11.21934        6.75453       63.15939
C        -10.96074        8.18619       63.51650
O         -9.88718        8.69407       63.22309
H        -12.09445        6.70043       62.47631
H        -10.34114        6.31314       62.64205
H        -11.43532        6.17051       64.07698
N        -11.93474        8.91890       64.12130
C        -11.78213       10.34059       64.38648
C        -10.74303       10.59950       65.46786
O        -10.93191       10.17278       66.59889
C        -13.13393       10.95181       64.77889
C        -13.10036       12.44715       64.78055
O        -14.12110       13.05995       65.02341
O        -11.98956       13.12990       64.44897
H        -12.84001        8.46234       64.31706
H        -11.48144       10.81339       63.42765
H        -13.46226       10.57057       65.77059
H        -13.89300       10.65706       64.02111
N         -9.60458       11.28515       65.17220
C         -8.53777       11.52086       66.13488
C         -8.87932       12.53290       67.22603
O         -8.07485       12.64176       68.14235
C         -7.28212       12.00815       65.39535
H         -9.45453       11.57302       64.19798
H         -8.28986       10.54581       66.60998
H         -6.43063       12.13856       66.09581
H         -6.98406       11.26319       64.62692
H         -7.48343       12.97844       64.88923
N         -9.97174       13.36217       67.18016
C        -10.14269       14.44831       68.15091
C        -11.58273       14.72656       68.59426
O        -11.72707       15.48280       69.54556
C         -9.42714       15.71342       67.63287
C        -10.02422       16.25268       66.36514
O        -11.26908       16.76047       66.37014
O         -9.37022       16.26711       65.33432
H        -10.56247       13.34384       66.34498
H         -9.61837       14.15973       69.08915
H         -8.36212       15.44987       67.44627
H         -9.44337       16.51472       68.40186
N        -12.68592       14.18328       67.99323
C        -14.04101       14.35994       68.51268
C        -14.97735       15.17439       67.63206
O        -16.12904       15.30850       68.02273
H        -12.57760       13.58840       67.16575
H        -14.02669       14.87054       69.50041
H        -14.47746       13.35227       68.67988
N        -14.57427       15.80484       66.48728
C        -15.43391       16.76245       65.77891
C        -16.49968       16.11908       64.87975
O        -17.21701       16.84776       64.20910
C        -14.57923       17.85800       65.07262
C        -14.29327       17.73423       63.56739
N        -13.42103       18.79436       63.08225
O        -13.86911       16.50096       63.09050
H        -13.58606       15.73759       66.22486
H        -15.95907       17.34574       66.57052
H        -13.65252       18.04750       65.65648
H        -15.16480       18.80283       65.12399
H        -13.93606       19.69903       63.16962
H        -13.25593       18.63992       62.06091
N        -16.68252       14.76570       64.83717
C        -17.67568       14.08666       64.01231
C        -17.30963       13.95372       62.53941
O        -18.05829       13.29561       61.83008
H        -16.14936       14.17134       65.47938
H        -18.67228       14.55929       64.14460
H        -17.75499       13.04073       64.38354
N        -16.18048       14.50308       62.00879
C        -15.73064       14.30249       60.62796
C        -14.32327       13.71168       60.61717
O        -13.72156       13.58927       61.67798
C        -15.74603       15.64351       59.84938
C        -17.15791       16.22156       59.73534
O        -14.91277       16.57804       60.48389
H        -15.59312       15.07358       62.61744
H        -16.39907       13.58471       60.10373
H        -15.37389       15.44794       58.81669
H        -14.64799       17.24785       59.80045
H        -17.57418       16.44959       60.73906
H        -17.12717       17.16267       59.14501
H        -17.82469       15.50298       59.21427
N        -13.73434       13.31379       59.44770
C        -12.35968       12.81770       59.37281
C        -11.55025       13.64218       58.36742
O        -11.86518       13.65144       57.18583
C        -12.30380       11.27769       59.11518
C        -12.97946       10.83615       57.79042
C        -12.90893       10.54008       60.32848
C        -12.84655        9.33594       57.51098
H        -14.28261       13.36222       58.57518
H        -11.86744       12.95327       60.35681
H        -11.22897       10.99277       59.06747
H        -12.49409       11.35252       56.94039
H        -14.05811       11.10063       57.79720
H        -12.40118       10.85936       61.26124
H        -13.99451       10.75253       60.42450
H        -12.76021        9.44428       60.25755
H        -13.39015        8.72826       58.26150
H        -13.28285        9.10340       56.51707
H        -11.77916        9.03813       57.50957
N        -10.49201       14.39064       58.79704
C         -9.63435       15.21396       57.93402
C         -8.79264       14.30696       57.03085
O         -8.90246       13.10213       57.17131
C         -8.78870       16.13794       58.85836
C         -8.11875       17.32600       58.21796
O         -7.13139       17.19818       57.51761
O         -8.55996       18.56663       58.50516
H        -10.30356       14.39418       59.80533
H        -10.29524       15.86655       57.32192
H         -8.05673       15.54893       59.45192
H         -9.50427       16.58457       59.57893
N         -7.96001       14.78391       56.05966
C         -7.21263       13.89585       55.16780
C         -6.27340       12.93267       55.91010
O         -6.35135       11.75008       55.60547
C         -6.57163       14.65696       53.97190
C         -5.33245       15.47125       54.24132
C         -4.08575       14.83337       54.37942
C         -5.39711       16.87342       54.32701
C         -2.92884       15.58448       54.60754
C         -4.23792       17.61899       54.56884
C         -3.00537       16.97524       54.70793
H         -7.91479       15.79349       55.88833
H         -7.97662       13.26408       54.65741
H         -7.36450       15.31241       53.54804
H         -6.31523       13.93900       53.16219
H         -4.00896       13.75596       54.30369
H         -6.34366       17.38814       54.22151
H         -1.97305       15.08672       54.71033
H         -4.29405       18.69701       54.64686
H         -2.10889       17.55375       54.89091
N         -5.39379       13.30153       56.90314
C         -4.51772       12.36140       57.60437
C         -5.30106       11.27127       58.30902
O         -4.97203       10.10059       58.18733
C         -3.79346       13.22700       58.64924
C         -3.79014       14.58449       57.98756
C         -5.20781       14.63801       57.43126
H         -3.77769       11.94786       56.88230
H         -4.41956       13.34262       59.56335
H         -2.80134       12.83418       58.96017
H         -3.52270       15.42847       58.65736
H         -3.07074       14.55204       57.14071
H         -5.93753       14.79679       58.25509
H         -5.30868       15.45545       56.70952
N         -6.39416       11.62423       59.04142
C         -7.26824       10.70654       59.76341
C         -7.75044        9.59746       58.84388
O         -7.58837        8.43593       59.19120
C         -8.45859       11.50191       60.35773
C         -7.99845       12.48469       61.45686
C         -9.11938       13.36843       61.92057
O         -8.98889       14.58239       61.90985
O        -10.27850       12.83520       62.33674
H         -6.64491       12.62303       59.04140
H         -6.71329       10.23399       60.60505
H         -9.19437       10.80147       60.81123
H         -8.96839       12.05300       59.53984
H         -7.17661       13.14253       61.10422
H         -7.61697       11.89499       62.31487
N         -8.29274        9.88221       57.62909
C         -8.70823        8.87833       56.67262
H         -9.76812        9.04576       56.40001
H         -8.09220        8.97583       55.75377
H         -8.59692        7.84622       57.06446
H         -8.37573       10.85915       57.33957
Ca       -12.29129       15.31557       64.14807
O        -10.02170       17.63755       62.60020
H        -10.10405       18.08598       61.72117
H        -10.60101       18.16717       63.20330
O        -11.74982       16.30982       60.73332
H        -12.52525       15.82398       61.09923
H        -12.07184       16.69423       59.88051

Ca 1.0



