%chk=holoCaM-CaMKII.loop2.water2.frame496.chk
%nprocshared=20
%mem=10GB
%nosave
#b3lyp/svp scf=(tight,noincore,xqc) Test 
#IOP(5/87=12) Density=Current Pop=(MK,readradii) iop(6/33=2) iop(6/42=6)

holoCaM-CaMKII.loop2.water2.frame496 

   -2  1 
C         -7.19915       82.01390      103.22357
C         -7.83973       82.71046      104.38813
O         -7.20972       82.86174      105.42191
H         -6.16611       81.68963      103.46974
H         -7.80274       81.13531      102.91923
H         -7.14368       82.72582      102.36988
N         -9.09184       83.21861      104.25428
C         -9.71599       84.09649      105.23658
C        -10.03832       83.44877      106.58536
O        -10.34301       82.26728      106.65473
C        -10.97547       84.72288      104.61812
C        -11.56000       85.75411      105.51680
O        -10.79298       86.78306      105.91857
O        -12.71101       85.65137      105.90819
H         -9.56991       83.07036      103.35100
H         -8.99780       84.92527      105.41886
H        -11.72487       83.93459      104.39017
H        -10.69630       85.23248      103.67058
N         -9.98998       84.23095      107.70657
C        -10.24396       83.80697      109.07770
C        -11.01734       84.88006      109.87211
O        -11.05557       84.79311      111.09213
C         -8.87843       83.55784      109.72501
H         -9.67144       85.19880      107.59255
H        -10.79694       82.84341      109.11993
H         -8.35468       82.75001      109.16867
H         -8.25124       84.47414      109.69566
H         -8.99435       83.22457      110.77806
N        -11.67548       85.90497      109.25012
C        -12.35736       86.99628      109.94897
C        -13.43844       87.63642      109.06881
O        -14.55183       87.79071      109.55181
C        -11.34230       87.99158      110.58576
C        -10.31753       88.61450      109.67430
O         -9.34388       89.38096      110.20271
O        -10.32259       88.40910      108.47661
H        -11.71706       85.89694      108.22927
H        -12.92584       86.57613      110.80903
H        -10.76774       87.43478      111.35505
H        -11.89037       88.80728      111.10851
N        -13.21520       87.98522      107.76881
C        -14.22875       88.54165      106.88449
C        -13.90203       89.96358      106.49093
O        -14.70926       90.57844      105.80886
H        -12.28951       87.85041      107.36370
H        -15.22284       88.55224      107.37681
H        -14.31269       87.90834      105.97322
N        -12.76199       90.57374      106.92596
C        -12.47249       91.98459      106.72648
C        -12.09990       92.36978      105.29058
O        -11.75593       93.52500      105.08100
C        -11.42331       92.43812      107.76790
C        -10.03153       91.89286      107.63246
N         -9.09673       92.30641      108.51472
O         -9.73317       91.10839      106.74587
H        -12.11203       90.05110      107.52486
H        -13.38066       92.56035      107.00773
H        -11.79260       92.15459      108.78007
H        -11.34627       93.54371      107.73290
H         -9.33813       92.94727      109.28142
H         -8.12477       92.01559      108.43490
N        -12.18909       91.49620      104.24185
C        -11.90936       91.86603      102.86099
C        -10.44031       92.07448      102.53970
O        -10.15101       92.42703      101.40873
H        -12.55142       90.55037      104.39860
H        -12.48541       92.78394      102.61109
H        -12.26260       91.05354      102.18973
N         -9.46240       91.88365      103.47099
C         -8.03982       92.10543      103.21276
C         -7.24207       90.86927      103.60163
O         -7.83188       89.92232      104.08931
C         -7.57713       93.33987      104.03104
C         -8.39318       94.57620      103.64021
O         -7.73751       93.14330      105.41545
H         -9.72496       91.60286      104.41745
H         -7.85741       92.30935      102.13592
H         -6.51011       93.56041      103.80425
H         -7.22805       92.33425      105.67708
H         -8.01553       95.46587      104.18435
H         -8.33035       94.76503      102.54784
H         -9.46026       94.43792      103.91760
N         -5.87718       90.83825      103.48006
C         -5.09646       89.71586      103.99178
C         -4.33467       90.16332      105.21795
O         -3.54724       91.09653      105.16064
C         -4.18406       89.04746      102.92636
C         -5.06074       88.57482      101.74073
C         -3.45369       87.84531      103.57209
C         -4.30645       87.80277      100.65984
H         -5.37945       91.64812      103.08559
H         -5.77635       88.90833      104.31768
H         -3.42009       89.77052      102.56335
H         -5.52777       89.46440      101.26743
H         -5.87046       87.91526      102.11569
H         -4.19344       87.09692      103.92697
H         -2.75377       87.34983      102.87306
H         -2.83350       88.17247      104.42673
H         -3.90385       86.84767      101.05657
H         -5.01368       87.54058       99.84585
H         -3.48054       88.41602      100.24599
N         -4.51873       89.46071      106.37013
C         -3.78512       89.67669      107.59647
C         -2.58954       88.74182      107.59446
O         -2.59333       87.79664      106.83523
C         -4.72190       89.39812      108.79001
C         -5.92949       90.30843      108.77327
O         -6.88260       90.27424      107.81149
O         -6.04708       91.13353      109.66200
H         -5.11711       88.63069      106.34387
H         -3.40842       90.72453      107.62685
H         -4.14821       89.58264      109.72345
H         -5.05078       88.33413      108.79291
N         -1.49039       88.98520      108.35386
C         -0.24654       88.21596      108.23845
C         -0.39430       86.70592      108.48671
O          0.13825       85.96571      107.67073
C          0.82999       88.83807      109.14035
C          2.20941       88.27414      108.90034
C          3.03519       88.81401      107.89589
C          2.69790       87.23302      109.70394
C          4.33315       88.32571      107.71196
C          3.99361       86.74348      109.51232
C          4.81271       87.29289      108.52170
H         -1.51220       89.80478      108.97928
H          0.12510       88.34065      107.19339
H          0.54637       88.73740      110.20682
H          0.88083       89.93024      108.93224
H          2.68152       89.62166      107.26616
H          2.07540       86.80485      110.47920
H          4.97026       88.75275      106.94725
H          4.36535       85.94313      110.13809
H          5.81958       86.92016      108.38348
N         -1.07643       86.14168      109.53763
C         -1.17259       84.69561      109.74260
C         -1.83662       83.99263      108.57358
O         -1.39922       82.90975      108.20916
C         -1.89678       84.54794      111.08543
C         -2.68670       85.83208      111.22181
C         -1.79142       86.87896      110.56071
H         -0.16885       84.23101      109.86040
H         -2.48165       83.61038      111.22102
H         -1.11748       84.58675      111.87677
H         -3.60038       85.71706      110.60036
H         -2.99409       86.08731      112.26091
H         -2.46746       87.66050      110.16378
H         -1.04875       87.31994      111.25633
N         -2.81489       84.60070      107.86349
C         -3.35077       84.05523      106.62153
C         -2.24713       84.01370      105.57030
O         -2.02143       82.97457      104.96807
C         -4.48185       84.94623      106.12657
C         -5.63677       85.05529      107.13970
C         -6.60526       86.07202      106.66712
O         -7.67056       86.38734      107.39774
O         -6.37213       86.72811      105.66905
H         -3.13725       85.52335      108.18786
H         -3.77946       83.04176      106.78689
H         -4.88810       84.55646      105.16587
H         -4.06617       85.95810      105.94348
H         -5.28810       85.41338      108.13111
H         -6.13418       84.07931      107.28822
N         -1.51904       85.13496      105.30851
C         -0.41579       85.19870      104.38038
H          0.45692       84.65418      104.79788
H         -0.70835       84.78509      103.39532
H         -0.11787       86.26279      104.24160
H         -1.73461       85.99212      105.81433
Ca        -7.99346       88.51869      107.01563
O        -10.86975       88.82065      104.26297
H         -9.99503       88.73858      103.81698
H        -11.52266       88.54967      103.57085
O         -8.31880       86.87750      103.84259
H         -8.61423       86.59118      102.94563
H         -7.47775       87.36406      103.66892

Ca 1.0



