%chk=holoCaM.loop1.water2.frame243.chk
%nprocshared=20
%mem=10GB
%nosave
#b3lyp/svp scf=(tight,noincore,xqc) Test 
#IOP(5/87=12) Density=Current Pop=(MK,readradii) iop(6/33=2) iop(6/42=6)

holoCaM.loop1.water2.frame243 

   0  1 
C         42.57455      110.34200       54.84087
C         42.30791      111.32526       53.73665
O         42.83999      112.42289       53.77779
H         42.25400      110.77631       55.81053
H         42.01608      109.39344       54.68563
H         43.65791      110.10698       54.88021
N         41.49296      110.98405       52.70332
C         41.15533      111.87244       51.59093
C         40.37459      113.07342       52.11659
O         39.21723      112.92457       52.48307
C         40.39675      111.01301       50.55433
C         39.73875      111.64143       49.36732
O         40.40884      112.29008       48.40001
O         38.55533      111.40894       49.18830
H         41.10483      110.02694       52.71028
H         42.09218      112.22638       51.12040
H         39.59100      110.46698       51.09479
H         41.10874      110.25083       50.16798
N         41.00479      114.27718       52.28966
C         40.37269      115.42789       52.93349
C         39.41225      116.11977       51.97857
O         38.21918      116.13893       52.24539
C         41.42920      116.42513       53.48665
C         42.29122      115.78841       54.59651
C         43.19042      116.81527       55.30319
C         43.94644      116.16256       56.47426
N         44.71281      117.15233       57.23206
H         42.00647      114.33485       52.06244
H         39.80172      115.06877       53.81980
H         40.88039      117.28419       53.93119
H         42.08918      116.81397       52.68048
H         42.91981      114.97590       54.17656
H         41.61016      115.35450       55.36037
H         42.54971      117.62848       55.70813
H         43.91545      117.25605       54.58384
H         44.63166      115.37498       56.08842
H         43.21522      115.68167       57.16212
H         45.19669      116.67457       58.02703
H         45.42859      117.60631       56.62039
H         44.06970      117.87847       57.62456
N         39.87349      116.71838       50.84336
C         39.01723      117.39641       49.85866
C         37.96511      116.49221       49.19242
O         37.13331      117.03167       48.47501
C         39.86861      118.09293       48.75250
C         40.80376      117.14828       48.03499
O         40.96555      115.91320       48.53847
O         41.44873      117.51925       47.06858
H         40.89369      116.72019       50.70477
H         38.45531      118.19148       50.39647
H         40.48254      118.90309       49.20071
H         39.17894      118.56320       48.01753
N         37.90094      115.14283       49.38544
C         36.83165      114.31528       48.83881
C         36.84997      114.21491       47.32641
O         35.84983      114.52581       46.69574
H         38.59682      114.67385       49.98083
H         35.84958      114.69796       49.19430
H         36.93878      113.28720       49.23648
N         37.95643      113.74556       46.68688
C         38.05605      113.51517       45.24693
C         38.42461      112.05750       44.92596
O         38.75504      111.77215       43.78312
C         39.03220      114.53840       44.61840
C         40.46723      114.46708       45.05920
O         40.88947      113.53409       45.92252
O         41.26993      115.27016       44.61361
H         38.77917      113.54239       47.26054
H         37.08161      113.71458       44.74858
H         38.65303      115.55596       44.85678
H         39.01341      114.41901       43.51358
N         38.31293      111.06745       45.86400
C         38.57230      109.65615       45.60077
C         40.04107      109.26644       45.55728
O         40.30141      108.08521       45.37336
H         37.92252      111.29630       46.78597
H         38.05617      109.34896       44.66367
H         38.12803      109.06135       46.42809
N         41.05211      110.17066       45.70861
C         42.47206      109.81706       45.65094
C         43.26145      110.38009       46.83510
O         42.72096      111.10656       47.65424
C         43.07378      110.29939       44.30559
C         42.55690      109.47354       43.11838
O         42.84012      111.67085       44.10345
H         40.81272      111.15947       45.82179
H         42.59922      108.71264       45.69926
H         44.17206      110.13981       44.31074
H         41.89386      111.78823       43.82440
H         41.45578      109.56048       43.01235
H         43.03739      109.82596       42.18137
H         42.82045      108.40320       43.26245
N         44.57319      110.03399       46.98264
C         45.46189      110.46886       48.06003
C         46.68117      111.15734       47.45799
O         47.25608      110.64844       46.50497
C         45.87796      109.22659       48.90777
C         44.67317      108.62780       49.68770
C         47.04936      109.51403       49.87057
C         44.12101      109.51426       50.81668
H         44.97533      109.37995       46.29364
H         44.96658      111.19490       48.73677
H         46.24192      108.44581       48.20283
H         44.99222      107.66781       50.14815
H         43.84914      108.39746       48.97941
H         47.95919      109.80045       49.30419
H         46.81101      110.33482       50.57622
H         47.30383      108.59859       50.44596
H         44.89000      109.70336       51.59428
H         43.74645      110.48342       50.43578
H         43.27469      108.99480       51.31216
N         47.18071      112.28253       48.04497
C         48.36442      113.00461       47.58373
C         49.51181      112.82748       48.57137
O         49.34895      112.13885       49.56928
C         48.02337      114.51658       47.45926
C         46.84563      114.76977       46.52314
O         47.71767      115.03708       48.73025
H         46.71775      112.63266       48.89457
H         48.70327      112.61849       46.59727
H         48.91021      115.04540       47.04204
H         47.88797      116.01448       48.69528
H         46.66314      115.86263       46.44081
H         47.05464      114.36534       45.51153
H         45.93341      114.29579       46.93756
N         50.70032      113.46756       48.37106
C         51.75937      113.52050       49.37804
C         51.23251      114.17729       50.64137
O         51.47409      113.66717       51.72492
C         52.98740      114.33489       48.88732
C         53.74334      113.63720       47.75771
O         52.59496      115.61879       48.46486
H         50.82758      114.00165       47.49875
H         52.11697      112.49473       49.62386
H         53.70041      114.40706       49.74617
H         53.23378      116.27221       48.85261
H         53.10366      113.51364       46.86065
H         54.63321      114.24356       47.48215
H         54.09672      112.64013       48.09742
N         50.52397      115.33934       50.56622
C         50.06678      116.07856       51.73977
C         48.99495      115.33683       52.54510
O         48.64373      115.82534       53.61011
C         49.55178      117.48040       51.32839
C         50.63146      118.29653       50.58456
C         50.13836      119.70224       50.22163
C         51.13947      120.47418       49.33971
N         52.43246      120.68236       49.99450
H         50.34094      115.72514       49.62994
H         50.94751      116.23402       52.40196
H         49.25751      118.03888       52.24404
H         48.65463      117.37415       50.67951
H         50.91465      117.79010       49.64036
H         51.53201      118.37064       51.22957
H         49.92762      120.27519       51.15041
H         49.19270      119.61261       49.64329
H         50.69438      121.46395       49.09585
H         51.29445      119.92736       48.38249
H         52.92401      119.77217       50.14122
H         53.03290      121.27312       49.37479
H         52.30154      121.17339       50.90802
N         48.43274      114.16651       52.11639
C         47.42850      113.41432       52.86870
C         47.91512      112.01647       53.24228
O         47.17926      111.32159       53.93000
C         46.15769      113.27555       52.01613
C         45.52400      114.63212       51.67883
C         44.37199      114.49707       50.72658
O         44.07222      113.41476       50.24845
O         43.66947      115.59105       50.38227
H         48.70383      113.78986       51.20316
H         47.17666      113.93489       53.81841
H         45.39868      112.65927       52.54834
H         46.43329      112.74466       51.08379
H         46.26685      115.30397       51.20101
H         45.16615      115.10125       52.62060
N         49.12005      111.52568       52.82964
C         49.60697      110.20309       53.16307
H         50.57569      110.29626       53.69735
H         48.90234      109.63842       53.80773
H         49.76843      109.62663       52.22775
H         49.73504      112.09214       52.23994
Ca        41.94353      113.91422       48.43882
O         43.85052      113.86201       45.57402
H         43.99147      114.82570       45.40031
H         44.49775      113.41032       44.97640
O         44.25187      116.52005       47.69311
H         43.93255      116.86511       46.82245
H         44.05509      117.24764       48.33484

Ca 1.0



