%chk=holoCaM.loop4.water3.frame198.chk
%nprocshared=20
%mem=10GB
%nosave
#b3lyp/svp scf=(tight,noincore,xqc) Test 
#IOP(5/87=12) Density=Current Pop=(MK,readradii) iop(6/33=2) iop(6/42=6)

holoCaM.loop4.water3.frame198 

   -3  1 
C         28.97408       44.94584      -16.68262
C         30.23731       44.14335      -16.63348
O         30.24923       43.10249      -15.99162
H         28.18164       44.46336      -16.06951
H         29.15787       45.96662      -16.28938
H         28.62061       45.00827      -17.73271
N         31.35855       44.57783      -17.27897
C         32.59907       43.81210      -17.27404
C         33.76529       44.64882      -17.80030
O         33.68799       45.18945      -18.89452
C         32.44660       42.52603      -18.11706
C         33.59363       41.57358      -17.92153
O         33.64965       40.54813      -18.57954
O         34.52687       41.80670      -16.98194
H         31.32573       45.49068      -17.75878
H         32.80894       43.52700      -16.21815
H         32.36220       42.80479      -19.18936
H         31.53095       41.96860      -17.83269
N         34.89353       44.76411      -17.04815
C         36.06205       45.57844      -17.37629
C         37.29331       44.69379      -17.60268
O         38.05408       44.96367      -18.52102
C         36.33350       46.56623      -16.18990
C         35.08781       47.44906      -15.90566
C         37.57278       47.44560      -16.45684
C         35.20356       48.29316      -14.63009
H         34.91231       44.25409      -16.15771
H         35.88790       46.18548      -18.29330
H         36.54564       45.95863      -15.28458
H         34.20613       46.79579      -15.76576
H         34.87999       48.11083      -16.77362
H         37.80453       48.08913      -15.58489
H         38.47625       46.82367      -16.62045
H         37.41045       48.08805      -17.34778
H         36.01162       49.04722      -14.70550
H         34.25191       48.84039      -14.46102
H         35.39030       47.64150      -13.74949
N         37.58011       43.66973      -16.74972
C         38.85823       42.95067      -16.68423
C         38.78409       41.46611      -17.05612
O         39.83160       40.83282      -17.05925
C         39.42830       43.10703      -15.24468
C         38.35751       42.84475      -14.20728
O         37.59409       41.73930      -14.29901
O         38.03096       43.73435      -13.43753
H         36.86876       43.42935      -16.05192
H         39.58715       43.38724      -17.40234
H         39.77498       44.15583      -15.11230
H         40.30748       42.44455      -15.09502
N         37.62950       40.84073      -17.41561
C         37.58160       39.45079      -17.86407
C         37.91707       38.39178      -16.81713
O         37.94263       37.22610      -17.18578
H         36.76455       41.38497      -17.45249
H         38.27682       39.33832      -18.72402
H         36.55611       39.22847      -18.23169
N         38.16868       38.69068      -15.50929
C         38.50008       37.69066      -14.48722
C         37.37245       36.69703      -14.16334
O         37.59237       35.83990      -13.31776
C         38.98848       38.38412      -13.18682
C         37.98825       39.26463      -12.48815
O         36.87746       39.46096      -12.95054
O         38.33978       39.86130      -11.33432
H         38.16921       39.67392      -15.23281
H         39.36863       37.10197      -14.85616
H         39.87599       39.00925      -13.42439
H         39.31150       37.60298      -12.46550
N         36.16000       36.71790      -14.78940
C         35.09547       35.76189      -14.51554
C         34.33025       36.02451      -13.22797
O         33.36683       35.31432      -12.98559
H         35.98489       37.39625      -15.53634
H         35.49459       34.72481      -14.54915
H         34.34227       35.85122      -15.32918
N         34.65523       37.04843      -12.38729
C         33.86172       37.44332      -11.22516
C         33.36831       38.87241      -11.42420
O         33.68683       39.47030      -12.44184
C         34.70454       37.32491       -9.94103
C         35.13184       35.87415       -9.67112
C         35.83194       35.75629       -8.34085
N         37.10209       35.29745       -8.25880
O         35.23674       36.06776       -7.31947
H         35.47786       37.61703      -12.59224
H         32.96421       36.79607      -11.11809
H         34.09053       37.66755       -9.08136
H         35.60414       37.97679      -10.01021
H         35.79276       35.52204      -10.49293
H         34.23290       35.22099       -9.64341
H         37.62294       35.02178       -9.10353
H         37.56631       35.21373       -7.34193
N         32.55951       39.47716      -10.49830
C         32.02961       40.82753      -10.68210
C         32.52910       41.75547       -9.57516
O         32.22611       41.54341       -8.41101
C         30.47898       40.78582      -10.83512
C         29.72692       40.29799       -9.58466
C         29.93176       42.15213      -11.27031
H         32.29499       38.95649       -9.65130
H         32.40009       41.23245      -11.64703
H         30.25324       40.07117      -11.65861
H         28.63977       40.23108       -9.80426
H         30.06619       39.28780       -9.27996
H         29.85157       40.99907       -8.73481
H         30.41416       42.47138      -12.21801
H         28.83789       42.09033      -11.45331
H         30.11885       42.91814      -10.49136
N         33.33600       42.80972       -9.89360
C         33.85759       43.78057       -8.92515
C         32.71007       44.64841       -8.40717
O         31.62641       44.56753       -8.96115
C         34.90239       44.65811       -9.68145
C         35.81730       45.58718       -8.92420
N         36.69180       46.35049       -9.62139
O         35.81668       45.63921       -7.70728
H         33.60451       42.91602      -10.88057
H         34.35622       43.21871       -8.10544
H         34.35760       45.24904      -10.44607
H         35.59772       43.98240      -10.21252
H         36.72311       46.30388      -10.65146
H         37.34215       46.98523       -9.13595
N         32.86016       45.51477       -7.36597
C         31.84107       46.50068       -7.01265
C         31.72222       47.55185       -8.11231
O         30.60676       47.87301       -8.49859
C         32.06772       47.16038       -5.63454
C         33.31576       47.99289       -5.48987
C         33.25102       49.38682       -5.65144
C         34.54030       47.39890       -5.14330
C         34.39550       50.16999       -5.48724
C         35.68334       48.18370       -4.97798
C         35.61707       49.56958       -5.15080
O         36.72871       50.31298       -4.98504
H         33.72138       45.47937       -6.82067
H         30.86212       45.98099       -6.89723
H         32.03972       46.39655       -4.82704
H         31.18580       47.81437       -5.44870
H         32.31466       49.86714       -5.90834
H         34.61282       46.33159       -4.98230
H         34.33021       51.24214       -5.62046
H         36.61973       47.71276       -4.70736
H         36.72310       51.27474       -5.09135
N         32.83818       48.07487       -8.71515
C         32.79039       49.02154       -9.83887
C         32.10332       48.45561      -11.09018
O         31.97022       49.19313      -12.05716
C         34.21197       49.51381      -10.21933
C         34.85526       50.35086       -9.10208
C         36.16386       50.94200       -9.54462
O         36.31373       52.28025       -9.59639
O         37.09698       50.21850       -9.85361
H         33.76082       47.77327       -8.36725
H         32.20191       49.91112       -9.52489
H         34.13276       50.17673      -11.10996
H         34.86299       48.65168      -10.48959
H         35.02584       49.73373       -8.19776
H         34.16778       51.18468       -8.83955
N         31.60368       47.18883      -11.13686
C         30.87053       46.62121      -12.25854
C         29.41476       46.50867      -11.84830
O         28.57348       47.10432      -12.50764
C         31.53765       45.28294      -12.66341
C         32.95902       45.60088      -13.14961
C         33.87223       44.45605      -13.45515
O         35.02200       44.72424      -13.75481
O         33.52527       43.15954      -13.37510
H         31.72078       46.57013      -10.33442
H         30.89759       47.29787      -13.14305
H         30.96552       44.78283      -13.47503
H         31.57950       44.60563      -11.78349
H         33.48594       46.18444      -12.36914
H         32.87564       46.23424      -14.05453
N         29.04468       45.84191      -10.72187
C         27.68527       45.85433      -10.22870
H         26.99943       45.40294      -10.97367
H         27.62270       45.28212       -9.27828
H         27.37425       46.90206      -10.02023
H         29.74996       45.35134      -10.16459
Ca        35.36550       41.93582      -13.89175
O         35.94599       41.81083      -11.20584
H         36.88458       42.03282      -11.42919
H         35.97631       40.92032      -10.77881
O         34.18238       39.11474      -15.78156
H         34.40341       38.80644      -16.69587
H         33.58396       38.41230      -15.42347
O         32.07033       40.88761      -14.88764
H         31.59465       41.50241      -14.27622
H         31.80708       39.98458      -14.57988

Ca 1.0



