%chk=holoCaM.loop3.water2.frame174.chk
%nprocshared=20
%mem=10GB
%nosave
#b3lyp/svp scf=(tight,noincore,xqc) Test 
#IOP(5/87=12) Density=Current Pop=(MK,readradii) iop(6/33=2) iop(6/42=6)

holoCaM.loop3.water2.frame174 

   0  1 
C         26.43212       86.78064       -8.92288
C         27.09889       87.21208       -7.65053
O         28.21479       87.70982       -7.68785
H         25.47788       87.33306       -9.05145
H         27.08480       86.96887       -9.80047
H         26.21319       85.69167       -8.87039
N         26.46221       87.00741       -6.46846
C         27.02749       87.31211       -5.16515
C         27.28441       85.99014       -4.47830
O         26.48593       85.55325       -3.66263
C         26.06671       88.23955       -4.39543
C         26.53469       88.50392       -2.99712
O         27.62754       89.00148       -2.78392
O         25.73683       88.17983       -1.96827
H         25.53311       86.55653       -6.48746
H         28.00037       87.84266       -5.24417
H         25.05260       87.78710       -4.35283
H         25.98662       89.21016       -4.92051
N         28.36649       85.25301       -4.85446
C         28.63004       83.90663       -4.36005
C         29.21320       83.85708       -2.95066
O         29.36749       82.75207       -2.44964
C         29.50132       83.13321       -5.36863
C         28.73984       82.96815       -6.69761
C         29.49055       82.07484       -7.68386
C         28.63762       81.83575       -8.93805
N         29.31083       80.92828       -9.86419
H         28.97422       85.63691       -5.59556
H         27.66196       83.35850       -4.31152
H         29.69854       82.11738       -4.96214
H         30.47594       83.64619       -5.52630
H         28.54686       83.95764       -7.16731
H         27.75979       82.48868       -6.47868
H         29.69314       81.09502       -7.19924
H         30.45776       82.54765       -7.96151
H         28.43339       82.80465       -9.44636
H         27.66296       81.38636       -8.64048
H         28.69566       80.77118      -10.69491
H         30.21580       81.34471      -10.18116
H         29.48704       80.00857       -9.39763
N         29.48915       84.97806       -2.21966
C         29.82553       84.92454       -0.79264
C         28.64789       85.40434        0.05434
O         28.73995       85.33338        1.27261
C         31.15709       85.63473       -0.45616
C         31.25415       87.04336       -0.94123
O         31.36052       88.06516       -0.07005
O         31.32749       87.25488       -2.13825
H         29.34173       85.90278       -2.64729
H         29.97196       83.87206       -0.46811
H         32.00374       85.07654       -0.91059
H         31.30059       85.61301        0.64641
N         27.46846       85.79475       -0.51438
C         26.24415       86.01359        0.23224
C         26.24244       87.22226        1.13415
O         25.24939       87.39585        1.82611
H         27.38202       85.83510       -1.53075
H         26.03670       85.10268        0.83358
H         25.39949       86.13081       -0.48132
N         27.28420       88.10242        1.20407
C         27.27618       89.21148        2.15609
C         26.19294       90.25516        1.87248
O         26.00437       91.12749        2.71123
C         28.66749       89.87177        2.25578
C         29.03618       90.70361        1.04942
N         29.29860       92.02421        1.18997
O         29.10558       90.18806       -0.05587
H         28.12012       87.94551        0.62534
H         27.07628       88.75833        3.15327
H         29.43622       89.08344        2.41355
H         28.67540       90.52025        3.15828
H         29.25131       92.47834        2.11411
H         29.55578       92.59811        0.37523
N         25.45819       90.24636        0.71981
C         24.39574       91.19107        0.41695
C         24.68284       92.05198       -0.80215
O         23.82656       92.85331       -1.13844
H         25.64685       89.53311        0.00831
H         24.21699       91.88141        1.27121
H         23.45836       90.62043        0.24658
N         25.88154       92.00752       -1.46427
C         26.27475       93.02099       -2.44429
C         27.13683       92.44881       -3.55357
O         28.08510       91.73581       -3.26763
C         27.08994       94.09735       -1.69987
C         26.19132       94.89211       -0.78668
C         26.29292       94.78538        0.60926
C         25.22096       95.74295       -1.34387
C         25.42539       95.51202        1.43282
C         24.36358       96.47301       -0.52107
C         24.45999       96.35744        0.87190
O         23.63122       97.05142        1.67731
H         26.61954       91.38385       -1.11226
H         25.39344       93.51296       -2.90869
H         27.56392       94.80919       -2.41107
H         27.90330       93.59464       -1.13274
H         27.02713       94.12858        1.05883
H         25.13033       95.84169       -2.41896
H         25.50071       95.41521        2.50820
H         23.62350       97.12423       -0.96911
H         22.95149       97.64414        1.32506
N         26.94553       92.86989       -4.84317
C         27.87876       92.55680       -5.91988
C         28.77824       93.76862       -6.10973
O         28.26805       94.85745       -6.32639
C         27.16955       92.25486       -7.27872
C         26.00109       91.25471       -7.14836
C         28.21980       91.72937       -8.28819
C         25.21034       91.09777       -8.45342
H         26.21141       93.56732       -5.03213
H         28.47743       91.66478       -5.64584
H         26.73547       93.20737       -7.65646
H         25.28596       91.63630       -6.38906
H         26.37754       90.26440       -6.82721
H         29.06517       92.43488       -8.39750
H         28.62455       90.75307       -7.94243
H         27.79753       91.59400       -9.30166
H         24.84360       92.08789       -8.80234
H         25.82278       90.63607       -9.25351
H         24.33494       90.43830       -8.28382
N         30.13145       93.63150       -6.10416
C         31.05206       94.72288       -6.38151
C         31.64976       94.54939       -7.76510
O         31.40612       93.54701       -8.41899
C         32.15020       94.77167       -5.30279
O         32.93180       93.60285       -5.33480
H         30.52341       92.70092       -5.98288
H         30.50866       95.69105       -6.38171
H         31.68441       94.91975       -4.30019
H         32.82324       95.63855       -5.46890
H         32.73688       93.08715       -4.51022
N         32.43564       95.52976       -8.28557
C         33.05479       95.43389       -9.60129
C         34.01572       94.26514       -9.65521
O         34.00534       93.53326      -10.63556
C         33.79602       96.73233       -9.92899
H         32.59468       96.37822       -7.72216
H         32.26920       95.31081      -10.38106
H         34.60119       96.92995       -9.19078
H         34.23959       96.66916      -10.94601
H         33.07914       97.58192       -9.91801
N         34.86353       94.02079       -8.61644
C         35.82819       92.92900       -8.60444
C         35.16799       91.57149       -8.79645
O         35.51366       90.89041       -9.75185
C         36.62563       92.94248       -7.29290
H         34.82194       94.64891       -7.79771
H         36.54988       93.09414       -9.43599
H         35.95539       92.80085       -6.41776
H         37.38710       92.13410       -7.29553
H         37.14821       93.91597       -7.17641
N         34.23278       91.09623       -7.92046
C         33.66040       89.75060       -8.04177
C         32.82627       89.57059       -9.31168
O         32.46721       88.44132       -9.61477
C         32.80478       89.41006       -6.78888
C         31.46339       90.15569       -6.82364
C         30.66167       90.16867       -5.52901
O         31.25628       90.93678       -4.52563
O         30.33414       88.92012       -4.99888
H         33.97403       91.68564       -7.11531
H         34.52155       89.04650       -8.06576
H         33.39262       89.68295       -5.88532
H         32.59003       88.31999       -6.74036
H         30.82483       89.71485       -7.61809
H         31.64761       91.21061       -7.09602
N         32.41768       90.64305      -10.05324
C         31.56697       90.54436      -11.22114
H         30.63030       91.11350      -11.03628
H         32.08659       90.99171      -12.09402
H         31.29722       89.49625      -11.46430
H         32.68008       91.59301       -9.76615
Ca        30.54794       89.64147       -2.84018
O         33.28582       90.63348       -2.04618
H         33.71656       89.88620       -2.53246
H         32.93475       90.22066       -1.21736
O         30.67835       92.93890       -2.10153
H         31.61030       93.06981       -1.79446
H         30.28017       93.84503       -2.07867

Ca 1.0



