%chk=holoCaM-CaMKII.loop2.water2.frame258.chk
%nprocshared=20
%mem=10GB
%nosave
#b3lyp/svp scf=(tight,noincore,xqc) Test 
#IOP(5/87=12) Density=Current Pop=(MK,readradii) iop(6/33=2) iop(6/42=6)

holoCaM-CaMKII.loop2.water2.frame258 

   -2  1 
C        101.07673      -16.49714       57.84439
C        101.02503      -17.24280       56.53727
O        100.59928      -18.38633       56.51737
H        101.45747      -15.46118       57.70746
H        100.05153      -16.42305       58.26719
H        101.73464      -17.02131       58.56550
N        101.40545      -16.62306       55.39004
C        101.25028      -17.19102       54.05466
C        102.13970      -18.39896       53.78046
O        103.34777      -18.29650       53.94004
C        101.52986      -16.08346       53.02386
C        101.26950      -16.55500       51.63376
O        102.10955      -16.38777       50.76553
O        100.11126      -17.17876       51.34690
H        101.74151      -15.64979       55.46673
H        100.18436      -17.47860       53.92617
H        102.57150      -15.70116       53.11093
H        100.83727      -15.24184       53.22812
N        101.59704      -19.55189       53.27441
C        102.38082      -20.71964       52.87629
C        102.23116      -21.08336       51.39367
O        102.94395      -21.98216       50.96726
C        101.94223      -21.92458       53.71631
H        100.57830      -19.60072       53.14937
H        103.46008      -20.53203       53.06288
H        102.54514      -22.82312       53.46189
H        102.07055      -21.70942       54.79701
H        100.87057      -22.15562       53.52348
N        101.30949      -20.49960       50.56457
C        101.08954      -20.94016       49.17886
C        101.16893      -19.82548       48.14037
O        101.08530      -20.13152       46.95844
C         99.72838      -21.66798       49.08180
C         98.51012      -20.84123       49.42304
O         97.29842      -21.42642       49.40310
O         98.59556      -19.66023       49.71854
H        100.68482      -19.78281       50.95008
H        101.86751      -21.67984       48.89065
H         99.75613      -22.53418       49.77625
H         99.59604      -22.06363       48.05117
N        101.29767      -18.51828       48.48924
C        101.33344      -17.42813       47.53129
C        100.09223      -17.39346       46.67101
O        100.22413      -17.41625       45.45555
H        101.36026      -18.27226       49.47795
H        102.23877      -17.51914       46.89181
H        101.40390      -16.46477       48.08286
N         98.85180      -17.32222       47.23432
C         97.62344      -17.21189       46.45115
C         96.92484      -15.87133       46.68664
O         95.80993      -15.69381       46.21588
C         96.69960      -18.43046       46.67856
C         96.04392      -18.58100       48.02440
N         95.14476      -19.57707       48.19476
O         96.28947      -17.81776       48.94521
H         98.77821      -17.32126       48.26166
H         97.85439      -17.24569       45.36470
H         97.26715      -19.36242       46.46112
H         95.87411      -18.35923       45.93814
H         94.92222      -20.22464       47.42560
H         94.64978      -19.70051       49.08128
N         97.56108      -14.84854       47.33200
C         97.00673      -13.51452       47.50997
C         95.92016      -13.39617       48.56271
O         95.48895      -12.27576       48.79813
H         98.53624      -14.97363       47.63199
H         96.65085      -13.12485       46.53182
H         97.83066      -12.85191       47.85348
N         95.42746      -14.47003       49.24184
C         94.40627      -14.37498       50.28439
C         94.88542      -15.04442       51.56628
O         95.98157      -15.58735       51.58931
C         93.09643      -15.03080       49.77609
C         92.51336      -14.24206       48.60046
O         93.32243      -16.35655       49.36842
H         95.76853      -15.40896       49.00603
H         94.18374      -13.31375       50.53486
H         92.31444      -15.00987       50.56784
H         93.43909      -16.89855       50.19124
H         93.21589      -14.22669       47.74091
H         91.56043      -14.70593       48.26970
H         92.30198      -13.19554       48.91100
N         94.08375      -15.08011       52.66927
C         94.42836      -15.80054       53.88986
C         93.47678      -16.97446       53.99164
O         92.27180      -16.75526       54.01815
C         94.31632      -14.89207       55.15279
C         95.14587      -13.59305       54.99777
C         94.76114      -15.68356       56.40461
C         94.95326      -12.61225       56.16064
H         93.15614      -14.62996       52.62626
H         95.47225      -16.17950       53.83573
H         93.25005      -14.59627       55.27425
H         94.81496      -13.06242       54.07974
H         96.22522      -13.83295       54.89186
H         94.15899      -16.60440       56.52790
H         95.83164      -15.97213       56.32249
H         94.61991      -15.09975       57.33468
H         95.33426      -13.02522       57.11601
H         95.51575      -11.67758       55.95657
H         93.87743      -12.35790       56.27546
N         93.94364      -18.25207       54.06290
C         93.05565      -19.39994       54.19172
C         92.81143      -19.70751       55.65337
O         93.44409      -19.09960       56.50178
C         93.61586      -20.61341       53.42293
C         93.60514      -20.35366       51.93889
O         94.43345      -19.46101       51.36067
O         92.81992      -20.96544       51.23335
H         94.95943      -18.40911       54.11825
H         92.05691      -19.15071       53.76809
H         92.94746      -21.47856       53.61647
H         94.63636      -20.88804       53.77492
N         91.84534      -20.59443       56.03147
C         91.54888      -20.86113       57.43371
C         92.74442      -21.50653       58.13175
O         93.14142      -20.96526       59.15249
C         90.26803      -21.70637       57.62268
C         90.01062      -21.92194       59.09593
C         90.28925      -23.16789       59.68305
C         89.53883      -20.87146       59.90248
C         90.10781      -23.35647       61.05554
C         89.34316      -21.06988       61.27309
C         89.63243      -22.30977       61.84974
H         91.27958      -21.05681       55.30284
H         91.32734      -19.88666       57.92864
H         90.35731      -22.67948       57.12101
H         89.38690      -21.21166       57.15863
H         90.67339      -23.98376       59.08314
H         89.32013      -19.90280       59.47007
H         90.34271      -24.31292       61.50391
H         88.97439      -20.26056       61.89006
H         89.49245      -22.45870       62.91248
N         93.37972      -22.63954       57.67516
C         94.54066      -23.24338       58.32412
C         95.58121      -22.23271       58.76285
O         96.00226      -22.27516       59.91030
C         95.10673      -24.17730       57.24718
C         93.84425      -24.65585       56.57753
C         93.05574      -23.35817       56.45399
H         94.18791      -23.83688       59.19814
H         95.66540      -23.59058       56.48226
H         95.77014      -24.97821       57.63679
H         93.97866      -25.20472       55.62162
H         93.31558      -25.32267       57.29902
H         93.39100      -22.75380       55.58635
H         91.99914      -23.64209       56.34030
N         95.99151      -21.25240       57.91060
C         96.93216      -20.20145       58.29136
C         96.39084      -19.42063       59.47655
O         97.04721      -19.37793       60.50691
C         97.16255      -19.22665       57.12211
C         97.81974      -19.88695       55.90071
C         97.83247      -18.95436       54.72720
O         98.17317      -19.42928       53.52474
O         97.36879      -17.82798       54.80747
H         95.57539      -21.23652       56.96677
H         97.90866      -20.65936       58.56582
H         97.80881      -18.38315       57.45130
H         96.17670      -18.81136       56.81509
H         97.22461      -20.76675       55.58228
H         98.84527      -20.23699       56.13813
N         95.18821      -18.78509       59.39406
C         94.59158      -18.02952       60.47363
H         93.61250      -18.48312       60.73669
H         95.22991      -18.01202       61.38023
H         94.42065      -16.98565       60.13620
H         94.65223      -18.84188       58.52252
Ca        96.51320      -19.06058       52.09028
O         98.22086      -15.23747       53.45770
H         98.42084      -14.26847       53.47911
H         98.54306      -15.57250       54.33126
O         98.37819      -15.54855       50.16249
H         99.27477      -15.50614       49.74573
H         98.13965      -14.60239       50.31728

Ca 1.0



