%chk=holoCaM.loop3.water3.frame380.chk
%nprocshared=20
%mem=10GB
%nosave
#b3lyp/svp scf=(tight,noincore,xqc) Test 
#IOP(5/87=12) Density=Current Pop=(MK,readradii) iop(6/33=2) iop(6/42=6)

holoCaM.loop3.water3.frame380 

   0  1 
C         80.70497       67.61101       76.17611
C         81.56876       66.63721       76.90944
O         82.09343       65.72455       76.28479
H         79.68296       67.59894       76.60861
H         81.13884       68.62730       76.26808
H         80.64170       67.33960       75.10015
N         81.73999       66.75253       78.25760
C         82.53714       65.80511       79.01290
C         81.62484       64.72233       79.56812
O         80.73823       65.01229       80.35812
C         83.42245       66.52662       80.06282
C         84.41091       65.57691       80.68396
O         85.35981       65.98534       81.32772
O         84.25631       64.26694       80.45860
H         81.23398       67.49280       78.76749
H         83.25728       65.32053       78.31601
H         82.82320       67.03652       80.84721
H         84.01189       67.29377       79.51550
N         81.79327       63.43510       79.14488
C         80.95293       62.30633       79.52832
C         80.90869       62.11185       81.03083
O         79.80539       62.06940       81.55809
C         81.44656       61.02154       78.81386
C         80.62376       59.76213       79.12253
C         81.14363       58.56422       78.30916
C         80.39425       57.27556       78.67408
N         80.87087       56.14475       77.87671
H         82.55505       63.25217       78.47623
H         79.91757       62.49876       79.16602
H         82.48692       60.80638       79.11585
H         81.41704       61.20590       77.71625
H         79.55489       59.93699       78.87421
H         80.71160       59.53116       80.20640
H         82.22762       58.41456       78.51090
H         81.01212       58.77510       77.22450
H         79.30459       57.41260       78.49825
H         80.55239       57.05402       79.75330
H         80.35430       55.28191       78.16359
H         80.69371       56.32114       76.86103
H         81.89371       55.99361       78.03518
N         82.04186       61.97013       81.78538
C         81.98358       61.63692       83.21124
C         82.37172       62.77465       84.14953
O         82.09774       62.63296       85.33353
C         82.76820       60.33737       83.49686
C         84.25917       60.42384       83.28702
O         84.79627       61.46336       82.94335
O         85.01562       59.33019       83.49592
H         82.95790       62.06582       81.32453
H         80.92702       61.41962       83.47936
H         82.37108       59.53684       82.83524
H         82.59253       60.03063       84.54998
N         82.97009       63.92803       83.72744
C         83.15986       65.08084       84.60487
C         84.59647       65.36926       84.99014
O         84.79998       66.33408       85.71497
H         83.26173       64.02014       82.74735
H         82.61129       64.94465       85.56134
H         82.71960       65.97022       84.10570
N         85.63775       64.57052       84.61921
C         86.99926       64.76432       85.12763
C         87.71790       66.00116       84.57201
O         88.87445       66.19622       84.91829
C         87.82720       63.46849       84.94710
C         88.25151       63.15405       83.53467
N         89.54856       62.87614       83.26323
O         87.42433       63.10940       82.63869
H         85.43299       63.73309       84.05823
H         86.92490       64.87846       86.23314
H         87.22049       62.62018       85.33311
H         88.73390       63.52919       85.58870
H         90.25930       62.87842       84.01006
H         89.84492       62.62770       82.30917
N         87.10269       66.89427       83.73868
C         87.75178       68.09220       83.22432
C         88.50984       67.85547       81.93270
O         89.08081       68.81163       81.42353
H         86.11300       66.77808       83.50254
H         88.41405       68.53322       84.00168
H         86.96870       68.84962       83.00509
N         88.57028       66.62919       81.34087
C         89.32462       66.34198       80.12550
C         88.43848       65.71367       79.07142
O         87.72265       64.76654       79.37463
C         90.47688       65.39028       80.48122
C         91.49038       66.10838       81.33863
C         91.68646       65.75684       82.68231
C         92.24636       67.15805       80.78764
C         92.61592       66.44936       83.46431
C         93.17797       67.84467       81.56706
C         93.36436       67.49411       82.91084
O         94.25647       68.15322       83.67657
H         88.09923       65.82980       81.79104
H         89.77006       67.26224       79.68920
H         90.99422       65.03012       79.56505
H         90.05472       64.50443       80.99827
H         91.11379       64.96088       83.13057
H         92.11623       67.44327       79.75084
H         92.75188       66.17512       84.50261
H         93.75138       68.64936       81.12459
H         94.79074       68.88184       83.32919
N         88.49882       66.15373       77.78090
C         87.73783       65.56861       76.68556
C         88.69632       64.83624       75.75178
O         89.48169       65.46392       75.05388
C         86.90309       66.67863       75.97215
C         85.78462       67.16573       76.93146
C         86.31158       66.19806       74.63169
C         84.97242       68.35129       76.40760
H         89.15788       66.91339       77.54618
H         87.02458       64.80805       77.07609
H         87.58673       67.52541       75.73653
H         86.23700       67.48257       77.89537
H         85.08977       66.32341       77.13800
H         87.11660       65.88343       73.93720
H         85.61055       65.35554       74.78497
H         85.78506       67.02140       74.10956
H         84.42387       68.09701       75.47882
H         84.21501       68.63832       77.16751
H         85.63848       69.21985       76.22233
N         88.67193       63.47417       75.71589
C         89.45276       62.63156       74.81789
C         88.94907       62.76589       73.39251
O         87.99610       63.48872       73.15731
C         89.33564       61.13791       75.24385
O         88.08586       60.56775       74.94109
H         88.07737       63.00855       76.39571
H         90.52107       62.92245       74.90558
H         89.56497       61.00856       76.32424
H         90.09189       60.54544       74.69028
H         87.38243       61.15179       75.31021
N         89.51327       62.04070       72.39032
C         88.95914       62.00372       71.04303
C         87.58559       61.34115       71.04537
O         86.64757       61.93039       70.52545
C         89.90146       61.24504       70.10715
H         90.34648       61.47201       72.60154
H         88.88518       63.04014       70.64183
H         90.04006       60.19501       70.43832
H         89.49324       61.25330       69.07380
H         90.89083       61.75157       70.09227
N         87.39415       60.11351       71.62300
C         86.11220       59.39782       71.60896
C         84.97076       60.12406       72.31900
O         83.83918       59.67372       72.20450
C         86.26994       58.01297       72.24895
H         88.20862       59.65522       72.06121
H         85.82354       59.26138       70.54298
H         87.06256       57.43533       71.72949
H         86.54496       58.11799       73.32154
H         85.32007       57.43970       72.18046
N         85.17855       61.25800       73.03967
C         84.11401       62.06459       73.61930
C         83.80768       63.17349       72.63272
O         82.66920       63.27155       72.19421
C         84.55273       62.56059       75.01737
C         84.51416       61.40047       76.03596
C         85.19204       61.74261       77.33195
O         84.52494       61.76563       78.48346
O         86.38063       61.96489       77.36428
H         86.13105       61.63298       73.11234
H         83.16977       61.48479       73.73733
H         83.87572       63.36388       75.38410
H         85.57658       62.98801       74.93682
H         85.02442       60.50370       75.63039
H         83.44840       61.14184       76.22167
N         84.78672       63.99257       72.16621
C         84.54754       64.96344       71.12177
H         83.79781       65.70927       71.45494
H         85.49496       65.48409       70.86641
H         84.17992       64.44690       70.20731
H         85.74187       63.89492       72.52418
Ca        85.59929       62.52237       80.31311
O         85.16638       59.55972       79.87898
H         86.03598       59.47712       79.41181
H         85.03535       58.69255       80.33417
O         87.80403       60.20554       81.59837
H         87.19540       60.48919       82.32406
H         88.65679       60.00573       82.05905
O         88.76601       61.99307       79.26084
H         89.44565       61.67831       79.90754
H         89.28097       62.51789       78.59811

Ca 1.0



