%chk=holoCaM.loop1.water2.frame447.chk
%nprocshared=20
%mem=10GB
%nosave
#b3lyp/svp scf=(tight,noincore,xqc) Test 
#IOP(5/87=12) Density=Current Pop=(MK,readradii) iop(6/33=2) iop(6/42=6)

holoCaM.loop1.water2.frame447 

   0  1 
C         11.58320       88.07817       40.56452
C         10.40211       88.83916       40.03556
O          9.66638       88.29820       39.22629
H         12.17053       88.68753       41.28407
H         11.23728       87.15860       41.07998
H         12.24894       87.79785       39.72113
N         10.15369       90.10730       40.45978
C          9.04917       90.92295       39.96624
C          9.23098       91.23495       38.48243
O         10.27628       91.73864       38.09618
C          8.96202       92.21217       40.80144
C          7.87533       93.12627       40.32871
O          6.71502       92.75173       40.27631
O          8.19299       94.37568       39.95712
H         10.77998       90.50837       41.17581
H          8.09174       90.37701       40.12813
H          9.92936       92.75813       40.75876
H          8.75991       91.93974       41.86112
N          8.21934       90.97302       37.60526
C          8.29000       91.17421       36.15816
C          7.31837       92.25440       35.66236
O          7.28978       92.47436       34.45920
C          7.97621       89.83164       35.44441
C          8.89946       88.66307       35.83504
C         10.33931       88.82443       35.32018
C         11.28639       87.70950       35.80495
N         10.84790       86.36991       35.40745
H          7.34822       90.59467       37.99073
H          9.30463       91.51257       35.86066
H          8.00985       89.95603       34.33990
H          6.94009       89.53745       35.71200
H          8.47373       87.73875       35.39011
H          8.88768       88.54329       36.93303
H         10.76567       89.78369       35.67788
H         10.32379       88.84262       34.20810
H         11.37884       87.75254       36.91257
H         12.29319       87.90343       35.37196
H         10.71085       86.32108       34.37220
H         11.58219       85.67882       35.68499
H          9.96446       86.11127       35.90202
N          6.52944       92.99515       36.50264
C          5.63258       94.06402       36.03843
C          6.06351       95.44095       36.52966
O          5.39808       96.41201       36.19325
C          4.20875       93.83404       36.57550
C          3.52967       92.62172       36.03571
O          3.30928       92.52092       34.83999
O          3.09701       91.66512       36.87123
H          6.57957       92.82641       37.51754
H          5.60953       94.11535       34.92829
H          3.55577       94.69395       36.31119
H          4.26850       93.77104       37.67903
N          7.13097       95.61384       37.35008
C          7.49238       96.89591       37.92553
C          6.39629       97.45772       38.81042
O          6.09753       98.63847       38.70703
H          7.70986       94.80622       37.61082
H          7.77405       97.62249       37.13304
H          8.38410       96.73809       38.57004
N          5.78126       96.66453       39.73186
C          4.85884       97.14937       40.75593
C          5.40420       96.85318       42.15833
O          4.73548       97.17594       43.13028
C          3.44455       96.55972       40.54750
C          3.39688       95.06069       40.44832
O          3.91146       94.28896       41.41811
O          2.86380       94.53475       39.48637
H          6.00513       95.65850       39.73412
H          4.74505       98.25392       40.69753
H          3.01525       96.98287       39.61217
H          2.79173       96.88605       41.38578
N          6.62351       96.26587       42.34003
C          7.21336       95.95536       43.62796
C          6.40393       94.95263       44.40823
O          6.26565       95.13103       45.60684
H          7.20445       96.02555       41.53008
H          7.38163       96.88070       44.22067
H          8.20721       95.49211       43.44039
N          5.91881       93.83291       43.80020
C          5.21927       92.73894       44.48675
C          5.11874       91.50091       43.58111
O          5.38786       91.57430       42.39075
C          3.79310       93.10977       45.02127
C          3.71681       94.08565       46.20412
O          2.96516       93.56105       43.98427
H          6.13751       93.73557       42.79859
H          5.86327       92.42041       45.33600
H          3.34905       92.17512       45.42578
H          3.22816       94.49544       43.77728
H          4.36253       93.73714       47.03748
H          3.97842       95.11930       45.90923
H          2.66896       94.13412       46.56930
N          4.81445       90.29069       44.12894
C          4.84483       89.02426       43.39963
C          3.50984       88.30291       43.53590
O          3.00962       88.13553       44.63916
C          6.06159       88.18583       43.90927
C          7.36356       88.84369       43.35845
C          5.97754       86.70635       43.47972
C          8.66737       88.20414       43.83126
H          4.63993       90.24457       45.14480
H          5.01697       89.18235       42.31151
H          6.06384       88.19580       45.02190
H          7.39964       89.91008       43.66443
H          7.34973       88.80952       42.24480
H          5.97334       86.60743       42.37874
H          6.82513       86.12279       43.89050
H          5.06217       86.23162       43.89004
H          8.75294       87.15122       43.49654
H          9.52192       88.75969       43.38747
H          8.74114       88.25779       44.93668
N          2.93509       87.76751       42.42008
C          1.70685       86.97599       42.39473
C          2.04741       85.52709       42.09184
O          3.21994       85.19989       41.97914
C          0.75625       87.51590       41.28903
C          0.23730       88.92271       41.57909
O          1.37688       87.45222       40.02523
H          3.44503       87.85921       41.52955
H          1.18892       86.99746       43.37818
H         -0.15371       86.88346       41.24035
H          1.93135       88.26435       39.89249
H         -0.30274       88.94220       42.54857
H          1.08115       89.63020       41.60972
H         -0.46255       89.23388       40.77379
N          1.06325       84.59323       41.93847
C          1.34989       83.23232       41.49254
C          1.86456       83.22434       40.05594
O          2.49251       82.24796       39.66944
C          0.10430       82.32066       41.58242
C         -0.38653       82.17272       43.02677
O         -0.92331       82.84227       40.77743
H          0.08581       84.86732       42.11215
H          2.13776       82.81069       42.15767
H          0.39678       81.30876       41.21321
H         -1.55694       82.09934       40.59895
H         -0.69818       83.14966       43.45033
H         -1.25849       81.48608       43.05672
H          0.41885       81.74541       43.66094
N          1.59557       84.25066       39.19005
C          2.09320       84.26521       37.81513
C          3.60978       84.45947       37.78090
O          4.20359       84.31796       36.72131
C          1.44093       85.39488       36.97026
C         -0.10111       85.38270       37.00195
C         -0.74958       86.33797       35.97962
C         -0.31182       87.81408       36.04987
N         -0.60300       88.43241       37.34149
H          1.00357       85.02420       39.51312
H          1.82118       83.29166       37.35024
H          1.78047       85.27077       35.91814
H          1.78863       86.38517       37.33504
H         -0.46296       85.64663       38.01666
H         -0.46436       84.35888       36.76869
H         -1.85295       86.28306       36.11018
H         -0.51277       85.97017       34.95845
H         -0.85892       88.37027       35.25618
H          0.77360       87.90408       35.82786
H         -0.03740       87.98186       38.09055
H         -0.34121       89.44313       37.29430
H         -1.62057       88.35495       37.56651
N          4.27817       84.88205       38.89387
C          5.68649       85.24318       38.95028
C          6.42256       84.45626       40.02785
O          7.60994       84.69331       40.20300
C          5.77010       86.75886       39.25061
C          4.96843       87.53698       38.20575
C          4.91300       89.00100       38.44993
O          5.20751       89.75649       37.54120
O          4.37586       89.50950       39.57508
H          3.74585       85.06956       39.74339
H          6.18341       85.04818       37.97468
H          6.82857       87.10123       39.25439
H          5.32805       86.96215       40.24791
H          3.91108       87.20698       38.21759
H          5.38906       87.34019       37.19492
N          5.79416       83.51104       40.79111
C          6.44848       82.76346       41.84443
H          7.51344       83.04725       41.97099
H          5.91966       82.94938       42.80333
H          6.39428       81.67944       41.61153
H          4.80135       83.29179       40.64052
Ca         3.67533       91.55584       39.05087
O          1.98413       91.69667       42.37858
H          2.70241       91.85037       41.71608
H          1.23876       92.27495       42.07959
O          0.69971       91.15410       39.09782
H          0.70359       91.57150       38.20042
H          0.58193       91.91310       39.72138

Ca 1.0



