%chk=holoCaM-CaMKII.loop2.water2.frame419.chk
%nprocshared=20
%mem=10GB
%nosave
#b3lyp/svp scf=(tight,noincore,xqc) Test 
#IOP(5/87=12) Density=Current Pop=(MK,readradii) iop(6/33=2) iop(6/42=6)

holoCaM-CaMKII.loop2.water2.frame419 

   -2  1 
C         68.24064       75.24681        8.94506
C         69.53732       75.64850        8.30611
O         70.24339       76.50092        8.82259
H         67.40175       75.37319        8.23029
H         68.30989       74.16845        9.21753
H         68.04553       75.82624        9.86921
N         69.93845       74.98356        7.19732
C         71.27717       75.06594        6.63137
C         71.59194       76.35880        5.86795
O         70.69297       76.99875        5.34178
C         71.43039       73.83864        5.71669
C         72.76421       73.73949        5.10792
O         73.85573       73.73041        5.89096
O         72.85886       73.72704        3.89356
H         69.29694       74.25659        6.83886
H         72.00396       74.96177        7.46875
H         70.66739       73.87817        4.91039
H         71.26137       72.91796        6.30710
N         72.89899       76.76311        5.75944
C         73.38203       77.90561        4.98530
C         74.65733       77.59403        4.16016
O         75.11176       78.50131        3.47581
C         73.68280       79.05881        5.95516
H         73.59119       76.24739        6.30821
H         72.58629       78.25904        4.29298
H         74.46899       78.76895        6.68526
H         74.02272       79.96375        5.40556
H         72.76270       79.33182        6.51591
N         75.32922       76.39309        4.21484
C         76.65647       76.17790        3.60982
C         76.87584       74.76384        3.01108
O         77.93770       74.53447        2.45005
C         77.73780       76.55543        4.66318
C         77.67497       75.72655        5.91937
O         78.00058       76.19886        6.99640
O         77.07589       74.53364        5.86444
H         74.99138       75.67517        4.85678
H         76.78796       76.88638        2.76262
H         77.53464       77.61096        4.95184
H         78.76367       76.52113        4.24292
N         75.91781       73.78957        3.05353
C         76.00319       72.48088        2.40298
C         76.96923       71.47874        3.01469
O         77.12800       70.41334        2.43535
H         75.03527       74.01411        3.49393
H         76.25738       72.63712        1.33362
H         75.00145       71.99634        2.43926
N         77.64808       71.72796        4.16531
C         78.65851       70.82870        4.72238
C         78.11018       69.53316        5.34856
O         78.91378       68.75821        5.84995
C         79.55220       71.61056        5.71493
C         78.87839       72.10363        6.96340
N         79.59360       72.78636        7.87833
O         77.69507       71.89997        7.16113
H         77.50342       72.63242        4.61651
H         79.34764       70.54467        3.89745
H         79.96442       72.49852        5.18682
H         80.40415       70.96658        6.01836
H         80.59091       72.99326        7.73050
H         79.14314       73.10135        8.74028
N         76.78285       69.20611        5.33807
C         76.24948       67.96844        5.90067
C         76.10070       67.97207        7.41291
O         75.62936       66.97330        7.93890
H         76.11748       69.81439        4.84921
H         76.86948       67.10529        5.57026
H         75.22589       67.81315        5.49832
N         76.47146       69.03730        8.17907
C         76.35567       69.07378        9.63241
C         75.63657       70.31331       10.12161
O         75.62138       71.32754        9.43745
C         77.76021       69.04072       10.27133
C         78.46090       67.72294        9.95194
O         78.55954       70.10036        9.80175
H         76.89377       69.84268        7.72269
H         75.78409       68.19257        9.99917
H         77.66320       69.09684       11.38050
H         78.26882       70.92649       10.26831
H         79.41750       67.66353       10.50998
H         77.81859       66.86805       10.25360
H         78.67467       67.64831        8.86416
N         75.08289       70.31280       11.36673
C         74.54005       71.51420       11.97930
C         75.70754       72.29544       12.54950
O         76.50165       71.71508       13.27962
C         73.52693       71.21190       13.13010
C         72.47246       70.14759       12.73873
C         72.81659       72.53286       13.51810
C         71.63561       69.68959       13.93925
H         75.12370       69.44612       11.92375
H         73.97435       72.08904       11.21386
H         74.09105       70.80879       14.00111
H         72.97885       69.23307       12.37373
H         71.81651       70.52522       11.92507
H         72.09423       72.41259       14.34562
H         73.54481       73.28715       13.85104
H         72.27008       72.94785       12.64055
H         72.30348       69.29318       14.73594
H         71.01976       70.50716       14.36133
H         70.95032       68.87622       13.62517
N         75.82641       73.62920       12.32943
C         76.84332       74.45095       12.96655
C         76.19139       75.22990       14.08539
O         74.98454       75.14810       14.23826
C         77.49803       75.39719       11.94647
C         78.06801       74.65405       10.78264
O         77.32476       74.10236        9.98530
O         79.40114       74.61713       10.60085
H         75.09796       74.10334       11.79132
H         77.63112       73.80902       13.42202
H         78.31491       75.95388       12.45239
H         76.76006       76.13105       11.55374
N         76.92273       75.97325       14.95331
C         76.29396       76.66697       16.07061
C         75.30844       77.73504       15.59067
O         74.20480       77.75350       16.11575
C         77.35053       77.17587       17.06601
C         76.71731       77.66993       18.34393
C         76.54952       76.80124       19.43970
C         76.28644       79.00051       18.45144
C         75.95957       77.26158       20.62105
C         75.70491       79.45876       19.63769
C         75.54054       78.59050       20.72091
H         77.94878       76.00156       14.84666
H         75.71651       75.90934       16.65194
H         78.03667       77.93666       16.64517
H         77.98435       76.29664       17.32133
H         76.86604       75.76672       19.37843
H         76.40905       79.68169       17.61904
H         75.82764       76.58877       21.45944
H         75.38199       80.48806       19.71710
H         75.08822       78.94718       21.63730
N         75.58260       78.62938       14.58743
C         74.61842       79.60187       14.07614
C         73.31938       78.96125       13.59690
O         72.26338       79.55748       13.75032
C         75.35580       80.25508       12.89427
C         76.80266       80.14668       13.32536
C         76.84317       78.73238       13.88340
H         74.42023       80.35324       14.87123
H         75.25797       79.62218       11.98204
H         75.00936       81.28280       12.64841
H         77.55162       80.34991       12.53028
H         76.96804       80.85548       14.16874
H         76.85279       77.98743       13.05910
H         77.73459       78.61974       14.52769
N         73.34271       77.75293       12.96873
C         72.15583       77.07666       12.44433
C         71.32726       76.44788       13.55494
O         70.12936       76.28079       13.37421
C         72.59115       75.99330       11.44142
C         73.37344       76.64400       10.27906
C         74.05390       75.67032        9.38212
O         74.66566       76.08371        8.41448
O         74.08445       74.36411        9.67255
H         74.26007       77.29999       12.83986
H         71.53404       77.80785       11.88022
H         71.70793       75.45287       11.03000
H         73.21782       75.25800       11.98303
H         74.19188       77.29056       10.65084
H         72.67313       77.27208        9.69076
N         71.91015       76.05059       14.72129
C         71.20482       75.43665       15.82557
H         70.13392       75.25874       15.59999
H         71.68307       74.46442       16.07261
H         71.28118       76.10038       16.71254
H         72.91519       76.18714       14.84779
Ca        75.60515       73.70979        7.29417
O         74.77534       71.13712        6.42975
H         74.28830       70.92514        7.26171
H         74.11661       70.98415        5.70802
O         72.38572       72.13075        8.32612
H         72.97979       72.48555        9.02352
H         71.60336       71.80175        8.82955

Ca 1.0



