%chk=holoCaM-CaMKII.loop1.water2.frame313.chk
%nprocshared=20
%mem=10GB
%nosave
#b3lyp/svp scf=(tight,noincore,xqc) Test 
#IOP(5/87=12) Density=Current Pop=(MK,readradii) iop(6/33=2) iop(6/42=6)

holoCaM-CaMKII.loop1.water2.frame313 

   0  1 
C         58.56094       13.18146       40.77255
C         58.50543       11.74745       41.18824
O         57.65713       11.02644       40.68038
H         59.38690       13.71770       41.28303
H         58.73850       13.22557       39.67568
H         57.59670       13.67405       41.00788
N         59.41607       11.23792       42.06589
C         59.47369        9.81334       42.32707
C         58.27711        9.33676       43.14401
O         58.15912        9.68789       44.30994
C         60.79459        9.42392       43.01427
C         61.04639        7.95778       42.86634
O         60.20917        7.20776       42.12227
O         62.07783        7.47179       43.29990
H         60.15043       11.85445       42.44664
H         59.48502        9.33798       41.31823
H         60.80290        9.74015       44.08029
H         61.64066        9.92497       42.49497
N         57.33372        8.54806       42.56496
C         56.14116        8.05886       43.24647
C         56.46660        6.97224       44.26107
O         56.01965        7.07677       45.39472
C         55.13739        7.52160       42.20068
C         53.78903        7.11816       42.82530
C         52.78780        6.69983       41.73801
C         51.43735        6.21992       42.29995
N         50.72111        7.26916       43.02870
H         57.43800        8.34496       41.56230
H         55.63187        8.91513       43.74524
H         55.57373        6.65744       41.65294
H         54.94518        8.33716       41.46809
H         53.38410        7.98706       43.38604
H         53.94043        6.27209       43.53004
H         53.22749        5.86079       41.15608
H         52.61386        7.55084       41.04314
H         51.59483        5.34214       42.96471
H         50.80917        5.89045       41.44255
H         50.58503        8.10711       42.41793
H         49.78275        6.90347       43.31052
H         51.23639        7.53673       43.89682
N         57.20203        5.87673       43.90561
C         57.35844        4.69837       44.76313
C         58.68498        4.64322       45.51377
O         58.87494        3.70586       46.27702
C         57.04434        3.41272       43.95825
C         57.98757        3.10596       42.82388
O         59.05941        3.87646       42.57895
O         57.78086        2.13267       42.11713
H         57.62251        5.86223       42.96529
H         56.59546        4.73521       45.57137
H         56.02041        3.51430       43.53691
H         57.04680        2.53892       44.64478
N         59.60408        5.64576       45.43530
C         60.77280        5.71817       46.29986
C         61.76545        4.59879       46.08964
O         62.09383        3.90917       47.04459
H         59.43446        6.44503       44.80870
H         60.44002        5.73664       47.36217
H         61.30197        6.67561       46.10290
N         62.32822        4.40530       44.86703
C         63.41614        3.46210       44.60146
C         64.66321        4.20777       44.10547
O         65.62372        3.56030       43.71405
C         62.91916        2.33308       43.66170
C         62.46940        2.78374       42.30812
O         61.80172        2.04604       41.60191
O         62.73291        4.02665       41.90437
H         61.99294        4.99259       44.09029
H         63.71814        2.93870       45.53483
H         62.04096        1.87627       44.16990
H         63.68881        1.54328       43.53577
N         64.74709        5.57332       44.18399
C         65.94594        6.34398       43.89447
C         66.12715        6.73816       42.44373
O         67.03361        7.51845       42.19179
H         63.97813        6.10259       44.61738
H         66.84872        5.84309       44.30548
H         65.84650        7.31101       44.43698
N         65.32081        6.28213       41.44121
C         65.42771        6.76078       40.06148
C         64.09285        7.30540       39.57233
O         63.08226        7.16204       40.24289
C         65.96391        5.65152       39.11955
C         67.43420        5.31670       39.40600
O         65.16826        4.49446       39.17135
H         64.59846        5.58637       41.65662
H         66.13818        7.61426       40.00563
H         65.94405        6.02609       38.07327
H         65.36084        4.02425       40.02480
H         67.78923        4.54658       38.68844
H         68.05995        6.22613       39.27720
H         67.56481        4.93367       40.43936
N         64.05173        8.00194       38.40060
C         62.84522        8.58527       37.82232
C         62.71063        8.05152       36.40347
O         63.66825        8.12975       35.64726
C         62.93348       10.14117       37.85675
C         63.08812       10.62340       39.32762
C         61.67582       10.76429       37.21142
C         63.26729       12.13515       39.48060
H         64.93905        8.16100       37.89991
H         61.94306        8.30821       38.41034
H         63.82613       10.46418       37.27640
H         63.99138       10.15455       39.77209
H         62.20522       10.30551       39.92574
H         61.56261       10.43141       36.15990
H         60.76260       10.47760       37.77644
H         61.74354       11.86968       37.17822
H         63.42205       12.37745       40.55367
H         64.15546       12.47714       38.90871
H         62.36962       12.69096       39.14375
N         61.53150        7.52659       35.96593
C         61.34485        6.96612       34.63082
C         60.53896        7.91902       33.77336
O         60.15096        8.97592       34.24107
C         60.63199        5.58664       34.72071
C         61.43400        4.56699       35.54036
O         59.32010        5.73230       35.21686
H         60.71493        7.56995       36.58499
H         62.32488        6.82961       34.12435
H         60.54261        5.14989       33.70442
H         59.32811        5.59292       36.19840
H         61.55791        4.92967       36.57879
H         60.89178        3.59685       35.56440
H         62.43501        4.40885       35.08983
N         60.25883        7.59754       32.48186
C         59.40231        8.40648       31.61974
C         57.99346        8.47705       32.20039
O         57.45960        9.56826       32.34394
C         59.37656        7.84491       30.17117
C         60.75783        7.94661       29.49458
O         58.87399        6.52923       30.12189
H         60.65765        6.72500       32.11076
H         59.81211        9.43962       31.54775
H         58.69453        8.48196       29.56713
H         59.61429        5.89449       30.30701
H         61.52242        7.34718       30.03210
H         60.69554        7.57820       28.44919
H         61.09513        9.00507       29.47325
N         57.35117        7.33746       32.58901
C         55.99405        7.28551       33.14891
C         55.83941        8.00301       34.49458
O         54.71908        8.06117       34.98264
C         55.57543        5.80934       33.32786
C         55.45919        5.07436       31.98021
C         55.33564        3.56066       32.19892
C         55.24408        2.77369       30.88155
N         53.96226        2.97429       30.20440
H         57.86331        6.45107       32.46715
H         55.29422        7.76895       32.43081
H         54.58794        5.73183       33.83526
H         56.33593        5.32079       33.97724
H         56.36386        5.23947       31.35971
H         54.58641        5.48703       31.43109
H         54.46512        3.31773       32.84559
H         56.26018        3.22909       32.72178
H         55.35000        1.69178       31.11589
H         56.08435        3.05829       30.20874
H         53.18229        2.65611       30.82485
H         53.82339        3.97543       29.94397
H         53.94835        2.39996       29.33092
N         56.88392        8.59816       35.13550
C         56.75635        9.36730       36.36781
C         56.85577       10.84085       36.01853
O         55.93833       11.57862       36.35125
C         57.80915        8.91100       37.40465
C         57.52859        7.46599       37.86112
C         58.50417        6.96548       38.89248
O         59.69561        6.90029       38.64686
O         58.05626        6.52595       40.08184
H         57.81522        8.55758       34.71624
H         55.75533        9.22501       36.83423
H         57.75893        9.57478       38.29463
H         58.82812        8.99306       36.96789
H         57.55695        6.78816       36.98651
H         56.50712        7.41841       38.29707
N         57.89242       11.32845       35.28060
C         57.96808       12.69984       34.81697
H         57.11920       13.31886       35.17595
H         58.91608       13.15863       35.16273
H         57.94967       12.70757       33.70528
H         58.64342       10.69650       34.98354
Ca        61.03054        5.31020       41.38651
O         59.17085        3.63397       38.92264
H         59.57712        2.75551       38.71352
H         58.42754        3.42350       39.54143
O         62.08214        4.08244       38.84598
H         62.71372        4.59738       39.40358
H         62.59505        3.28946       38.55131

Ca 1.0



