%chk=holoCaM.loop1.water2.frame292.chk
%nprocshared=20
%mem=10GB
%nosave
#b3lyp/svp scf=(tight,noincore,xqc) Test 
#IOP(5/87=12) Density=Current Pop=(MK,readradii) iop(6/33=2) iop(6/42=6)

holoCaM.loop1.water2.frame292 

   0  1 
C         30.32666       50.23386       45.27070
C         31.37539       49.62028       44.39871
O         31.88132       50.30375       43.52546
H         29.38110       49.66386       45.16167
H         30.65980       50.20580       46.32863
H         30.14497       51.29077       44.97851
N         31.75967       48.32784       44.60198
C         32.77078       47.62931       43.81050
C         32.26209       47.41569       42.38481
O         31.63137       46.40136       42.11830
C         33.12254       46.30126       44.51396
C         34.27200       45.55913       43.90151
O         34.85255       45.97475       42.91093
O         34.68623       44.42625       44.48911
H         31.32005       47.82551       45.38919
H         33.69938       48.22422       43.82106
H         32.23215       45.63649       44.54586
H         33.41886       46.53234       45.56108
N         32.37381       48.41044       41.45864
C         31.63222       48.40963       40.20505
C         32.19268       47.44046       39.16524
O         31.51668       47.22951       38.16858
C         31.56197       49.86208       39.66442
C         30.40433       50.11978       38.68676
C         30.39292       51.59334       38.25089
C         29.15367       51.92506       37.40945
N         29.19041       53.31531       36.95429
H         32.87371       49.26586       41.71855
H         30.59194       48.11221       40.46825
H         32.54419       50.15015       39.22836
H         31.36325       50.53785       40.52759
H         29.45114       49.88960       39.21385
H         30.48031       49.47576       37.78765
H         31.31439       51.79928       37.66380
H         30.38794       52.25343       39.14690
H         28.24001       51.76499       38.02589
H         29.10407       51.25233       36.52570
H         28.32240       53.52199       36.40928
H         29.23909       53.96576       37.77218
H         30.02067       53.46549       36.33599
N         33.41723       46.83580       39.30043
C         33.96247       45.91254       38.29888
C         34.23763       44.51049       38.85764
O         34.67352       43.66215       38.09162
C         35.17838       46.53800       37.57898
C         36.41277       46.73887       38.40709
O         36.46400       46.36065       39.69700
O         37.39978       47.23112       37.88472
H         34.00030       47.05748       40.11994
H         33.21713       45.76041       37.48829
H         34.86684       47.52270       37.16306
H         35.45765       45.88789       36.72092
N         33.91548       44.16130       40.14013
C         33.92607       42.78266       40.61788
C         35.29590       42.18594       40.85584
O         35.63113       41.19623       40.22122
H         33.50508       44.86453       40.76884
H         33.35224       42.15741       39.89936
H         33.39229       42.73766       41.59091
N         36.11632       42.70689       41.80890
C         37.41061       42.13362       42.18150
C         37.57363       41.96921       43.69914
O         38.68050       41.69083       44.14093
C         38.54481       42.96225       41.54227
C         38.59687       44.42812       41.87553
O         39.45996       45.11680       41.35816
O         37.70765       45.00505       42.70198
H         35.80518       43.56224       42.28674
H         37.53650       41.11743       41.74592
H         38.42853       42.88245       40.43976
H         39.52131       42.50152       41.80934
N         36.51739       42.08147       44.55853
C         36.63083       41.95722       46.00738
C         37.33167       43.12351       46.68615
O         37.41767       43.09074       47.90669
H         35.57063       42.20086       44.17782
H         37.13987       41.00202       46.26527
H         35.60657       41.91703       46.43861
N         37.85966       44.17648       45.99246
C         38.54389       45.30173       46.62722
C         37.94260       46.63618       46.18822
O         37.10374       46.66035       45.29640
C         40.06063       45.23999       46.31743
C         40.70346       43.94732       46.84602
O         40.31072       45.38201       44.94180
H         37.80577       44.17753       44.97061
H         38.42488       45.23970       47.73166
H         40.56266       46.08272       46.83894
H         40.01932       44.55222       44.48263
H         41.79454       43.95803       46.64095
H         40.54763       43.85902       47.94183
H         40.26584       43.05363       46.35121
N         38.29809       47.79013       46.82800
C         37.73229       49.10830       46.53656
C         38.84552       50.12564       46.28292
O         39.69803       50.32629       47.13671
C         36.75035       49.51195       47.68294
C         35.45167       48.66341       47.51800
C         36.41706       51.01725       47.67038
C         34.37797       48.89254       48.57868
H         38.95674       47.72308       47.61966
H         37.12084       49.07349       45.61867
H         37.23395       49.30390       48.66281
H         35.70868       47.58402       47.54066
H         34.99275       48.88380       46.52607
H         35.76250       51.28787       48.52208
H         37.33659       51.62418       47.79788
H         35.91635       51.30791       46.73189
H         34.77332       48.64849       49.58521
H         34.00209       49.93529       48.55935
H         33.51201       48.23057       48.36041
N         38.85632       50.82951       45.11141
C         39.82789       51.86380       44.75290
C         39.40199       53.22577       45.28479
O         38.37832       53.32882       45.93846
C         39.94491       51.95422       43.20005
C         40.45368       50.65625       42.59022
O         38.69686       52.27942       42.64060
H         38.10182       50.64747       44.43720
H         40.82948       51.60916       45.16361
H         40.68649       52.73632       42.92976
H         38.86467       52.64655       41.73374
H         39.72319       49.84551       42.76690
H         40.57887       50.79652       41.49729
H         41.43943       50.38561       43.02311
N         40.13507       54.33381       44.97604
C         39.71983       55.70726       45.25678
C         38.38852       56.00969       44.58070
O         37.50376       56.56098       45.21995
C         40.77858       56.72062       44.73312
C         42.11764       56.59117       45.46715
O         40.98265       56.54606       43.35221
H         41.01038       54.19776       44.45325
H         39.61579       55.86447       46.35404
H         40.38281       57.74635       44.92731
H         41.35246       57.39702       42.99935
H         41.97500       56.75842       46.55500
H         42.57353       55.59218       45.31128
H         42.82630       57.35574       45.08354
N         38.19420       55.67347       43.27355
C         36.99151       55.99679       42.50995
C         35.76361       55.40248       43.16780
O         34.82343       56.12089       43.47693
C         37.07131       55.44186       41.05689
C         38.33237       55.80432       40.25213
C         38.55928       57.30823       40.10014
C         39.83494       57.56330       39.28608
N         40.06140       58.99399       39.09962
H         38.95124       55.15890       42.80886
H         36.88536       57.10266       42.45953
H         36.17404       55.79248       40.50009
H         37.03570       54.33150       41.07369
H         38.22842       55.34979       39.24227
H         39.23050       55.34495       40.71172
H         38.67712       57.77709       41.10049
H         37.68410       57.76042       39.58574
H         39.74766       57.07411       38.29024
H         40.70750       57.11961       39.81786
H         40.16405       59.46587       40.02723
H         40.93991       59.12983       38.54924
H         39.26200       59.41467       38.57271
N         35.72328       54.06480       43.39646
C         34.58887       53.35635       43.96873
C         34.27796       53.84322       45.37496
O         33.11239       53.88074       45.74406
C         34.87329       51.84006       43.97831
C         35.07792       51.27244       42.55677
C         35.23138       49.75967       42.59365
O         36.28746       49.35648       43.40716
O         35.45562       49.23087       41.31797
H         36.55923       53.52280       43.14397
H         33.68990       53.51944       43.33255
H         34.01742       51.31981       44.45781
H         35.78531       51.64066       44.57515
H         35.97051       51.71156       42.06749
H         34.18566       51.50609       41.93719
N         35.27157       54.24794       46.21035
C         35.02604       54.72377       47.55299
H         34.36182       55.61323       47.52645
H         34.55875       53.92128       48.16109
H         35.98770       55.01557       48.02866
H         36.23906       54.23550       45.87730
Ca        37.26100       47.98450       41.91143
O         39.04512       49.28567       39.94142
H         39.95319       48.96122       40.16179
H         38.55032       48.46077       39.71920
O         39.88791       47.35903       43.05572
H         40.58610       47.51802       42.37212
H         40.23914       47.78205       43.87888

Ca 1.0



