%chk=holoCaM.loop2.water2.frame92.chk
%nprocshared=20
%mem=10GB
%nosave
#b3lyp/svp scf=(tight,noincore,xqc) Test 
#IOP(5/87=12) Density=Current Pop=(MK,readradii) iop(6/33=2) iop(6/42=6)

holoCaM.loop2.water2.frame92 

   -2  1 
C         78.72696       40.01240       23.42716
C         78.82563       41.16433       22.47244
O         79.87868       41.37532       21.88951
H         77.94097       39.31175       23.06931
H         79.68834       39.45929       23.48243
H         78.45327       40.37798       24.43756
N         77.72787       41.92700       22.22511
C         77.70080       42.96303       21.20242
C         78.55161       44.17191       21.59320
O         78.23738       44.82548       22.57839
C         76.23688       43.38811       20.95799
C         76.05197       44.23005       19.73530
O         74.82273       44.68705       19.43309
O         76.98644       44.46244       18.98597
H         76.85346       41.68581       22.71871
H         78.07275       42.50013       20.26087
H         75.85163       43.92901       21.84936
H         75.61125       42.48212       20.80557
N         79.63941       44.53095       20.85156
C         80.50946       45.65712       21.18232
C         80.09442       46.97000       20.51505
O         80.68043       47.98586       20.86438
C         81.94771       45.33502       20.74141
H         79.91058       43.92212       20.07459
H         80.51994       45.79243       22.28648
H         82.30217       44.39813       21.22004
H         81.98970       45.20197       19.63642
H         82.64315       46.15604       21.01910
N         79.18538       47.02782       19.49249
C         78.97889       48.24657       18.69311
C         77.53479       48.50372       18.24526
O         77.31590       49.51915       17.59816
C         79.92034       48.21744       17.46888
C         79.68140       47.06817       16.53530
O         78.71454       46.16837       16.77526
O         80.40572       46.92090       15.56432
H         78.80020       46.13987       19.15494
H         79.27970       49.13528       19.29020
H         80.96773       48.14198       17.83441
H         79.82700       49.16501       16.89624
N         76.49871       47.67190       18.54867
C         75.11550       47.95647       18.18174
C         74.77334       47.90050       16.69471
O         73.63277       48.21252       16.38207
H         76.67009       46.85262       19.13841
H         74.85623       48.96477       18.57162
H         74.45104       47.22594       18.68974
N         75.65588       47.52433       15.71965
C         75.30899       47.54068       14.28968
C         74.24194       46.50540       13.86509
O         73.89292       46.49111       12.69294
C         76.58389       47.40880       13.41327
C         77.25169       46.06259       13.45218
N         78.35408       45.82662       12.70628
O         76.79428       45.17226       14.14337
H         76.61771       47.28447       15.99008
H         74.90965       48.55362       14.06269
H         77.32027       48.18147       13.72615
H         76.31094       47.60908       12.35497
H         78.75999       46.56419       12.11289
H         78.79692       44.89769       12.71626
N         73.68047       45.61995       14.74147
C         72.60076       44.69611       14.40734
C         73.04555       43.28696       14.03347
O         72.17952       42.42877       13.93960
H         73.92472       45.68058       15.73253
H         71.92637       45.12322       13.63362
H         71.98066       44.58974       15.32418
N         74.34642       42.96782       13.77720
C         74.81461       41.62429       13.42090
C         75.97801       41.18533       14.31132
O         76.43805       41.95989       15.13518
C         75.24661       41.61200       11.92853
C         74.03651       41.77399       11.00548
O         76.16582       42.64128       11.66047
H         75.03758       43.72021       13.78268
H         74.00611       40.87241       13.55546
H         75.69410       40.63104       11.65274
H         77.02809       42.38032       12.07569
H         73.51947       42.73926       11.18472
H         74.36323       41.73706        9.94444
H         73.31823       40.94198       11.17412
N         76.53865       39.94989       14.14989
C         77.73253       39.48940       14.85606
C         78.91361       39.54096       13.90558
O         78.77041       39.28716       12.71713
C         77.50692       38.09715       15.53861
C         76.76347       38.31801       16.88575
C         78.82996       37.33365       15.77270
C         76.42057       37.04083       17.65579
H         76.15235       39.32455       13.42696
H         78.00269       40.20806       15.65224
H         76.90411       37.45931       14.85600
H         75.81824       38.86978       16.69797
H         77.40250       38.94038       17.55140
H         79.50022       37.89309       16.44812
H         78.64949       36.32684       16.19734
H         79.35245       37.15355       14.80959
H         75.89713       37.31356       18.59715
H         75.75847       36.38993       17.05017
H         77.33150       36.48027       17.94990
N         80.12427       39.92625       14.39991
C         81.31444       40.18002       13.60389
C         82.39738       39.20428       13.99798
O         82.14836       38.33908       14.82490
C         81.82049       41.60635       13.90080
C         80.76129       42.65014       13.82559
O         79.70418       42.53462       14.64562
O         80.92259       43.65759       13.15693
H         80.20917       40.09137       15.41537
H         81.09663       40.07928       12.51826
H         82.67128       41.87727       13.23960
H         82.16811       41.64006       14.95579
N         83.64099       39.28439       13.45886
C         84.70754       38.37528       13.83910
C         85.07939       38.50400       15.32688
O         85.05293       37.47755       15.98834
C         85.92721       38.54268       12.91057
C         86.95085       37.46838       13.15882
C         86.63884       36.12311       12.89296
C         88.22219       37.79643       13.65406
C         87.58461       35.12292       13.12126
C         89.16479       36.79105       13.88520
C         88.84674       35.45595       13.61832
H         83.82686       39.99798       12.73660
H         84.32964       37.34350       13.66050
H         86.38154       39.53861       13.02673
H         85.60254       38.46806       11.84973
H         85.66617       35.84846       12.50313
H         88.48009       38.82648       13.86806
H         87.33709       34.09050       12.91137
H         90.14187       37.04778       14.27152
H         89.57792       34.67915       13.79554
N         85.42045       39.69003       15.94338
C         85.76662       39.80635       17.36226
C         84.78039       39.12700       18.28790
O         85.17716       38.38626       19.17695
C         85.70453       41.32369       17.62691
C         86.15804       41.88914       16.31092
C         85.41588       41.00040       15.31746
H         86.79831       39.42055       17.51721
H         84.64930       41.66353       17.74414
H         86.26635       41.66275       18.52333
H         85.97969       42.97814       16.17695
H         87.24850       41.68568       16.22400
H         84.36580       41.32256       15.19038
H         85.95258       41.06950       14.36036
N         83.45889       39.38276       18.12858
C         82.40016       38.90664       19.00531
C         82.34524       37.38986       18.96842
O         82.45438       36.76282       20.01258
C         81.06565       39.55435       18.57091
C         81.13295       41.10379       18.65176
C         79.94005       41.78504       18.05278
O         78.98753       41.14721       17.64605
O         79.95082       43.12016       17.89959
H         83.20196       39.96771       17.32050
H         82.59797       39.24063       20.04894
H         80.22798       39.18695       19.20369
H         80.87271       39.26514       17.52048
H         81.99320       41.49380       18.07835
H         81.26847       41.43089       19.70309
N         82.22956       36.73225       17.78359
C         82.24735       35.29000       17.68042
H         83.19727       34.89249       18.09833
H         81.38498       34.85537       18.22617
H         82.18546       34.98935       16.61177
H         82.16100       37.27455       16.91756
Ca        78.83589       44.33234       15.55823
O         76.14152       41.48840       17.97789
H         75.18867       41.49795       18.24347
H         76.59491       40.98294       18.69705
O         75.49768       43.93638       16.59520
H         75.57053       44.86319       16.93078
H         74.56953       43.65517       16.79688

Ca 1.0



