%chk=holoCaM-CaMKII.loop3.water2.frame471.chk
%nprocshared=20
%mem=10GB
%nosave
#b3lyp/svp scf=(tight,noincore,xqc) Test 
#IOP(5/87=12) Density=Current Pop=(MK,readradii) iop(6/33=2) iop(6/42=6)

holoCaM-CaMKII.loop3.water2.frame471 

   0  1 
C         72.35968       43.90604       54.88462
C         72.72536       43.31318       53.56182
O         72.92880       44.05542       52.61036
H         71.37055       43.51896       55.20374
H         73.12780       43.62671       55.63614
H         72.31269       45.01383       54.81566
N         72.85252       41.96338       53.43228
C         73.26403       41.35047       52.18114
C         72.21673       41.58947       51.11017
O         71.09022       41.13413       51.25244
C         73.54752       39.85388       52.37387
C         74.24633       39.27232       51.18580
O         74.45472       40.01285       50.07853
O         74.74408       38.16518       51.27584
H         72.70109       41.36951       54.26277
H         74.23246       41.82551       51.89750
H         72.62963       39.27795       52.61955
H         74.25810       39.76206       53.22590
N         72.52140       42.36188       50.03321
C         71.53702       42.77567       49.04606
C         71.06281       41.60771       48.19568
O         69.86375       41.37876       48.12639
C         72.12057       43.90145       48.16896
C         71.01199       44.70236       47.47504
C         71.59380       45.85818       46.65561
C         70.47535       46.77931       46.15124
N         71.01687       47.85787       45.32680
H         73.47206       42.75345       49.97308
H         70.68402       43.22354       49.60527
H         72.86189       43.49607       47.44609
H         72.64213       44.62466       48.83494
H         70.35623       45.12620       48.26925
H         70.39828       44.04809       46.81934
H         72.16995       45.44100       45.80135
H         72.28093       46.46301       47.28862
H         69.94612       47.21965       47.02736
H         69.73988       46.19519       45.55580
H         70.23610       48.48932       45.03535
H         71.71764       48.41348       45.86944
H         71.46722       47.45802       44.47190
N         71.96121       40.81027       47.54240
C         71.57446       39.67571       46.70043
C         71.75234       38.33358       47.40399
O         71.46189       37.31433       46.79208
C         72.30642       39.72292       45.33728
C         73.80582       39.55661       45.38974
O         74.43918       39.55181       44.34665
O         74.46219       39.40438       46.55528
H         72.96402       40.99276       47.69238
H         70.48812       39.73721       46.46889
H         72.07705       40.68955       44.83925
H         71.90310       38.90868       44.69523
N         72.13840       38.25173       48.70977
C         72.15683       37.00365       49.45568
C         73.22526       36.00458       49.05163
O         73.19979       34.91699       49.61097
H         72.31521       39.11368       49.23791
H         71.15662       36.52769       49.35661
H         72.30561       37.22646       50.53351
N         74.18906       36.26017       48.11522
C         75.15010       35.23431       47.70155
C         76.10988       34.78267       48.80699
O         76.82506       33.81788       48.57422
C         75.95281       35.66954       46.45041
C         76.93494       36.79826       46.66462
N         77.72679       37.20054       45.64557
O         77.03925       37.33948       47.75247
H         74.20201       37.17201       47.64243
H         74.54910       34.34970       47.39175
H         75.24356       35.95647       45.64405
H         76.53401       34.79178       46.09291
H         77.66363       36.75132       44.72082
H         78.41577       37.95370       45.78566
N         76.19869       35.41990       50.01293
C         77.07633       34.97903       51.08986
C         78.09303       36.01625       51.53860
O         78.84570       35.69830       52.44823
H         75.60588       36.23481       50.19356
H         77.63753       34.06593       50.80090
H         76.44251       34.71818       51.96490
N         78.17798       37.26812       50.99551
C         79.13717       38.26852       51.47237
C         78.79134       39.67786       50.92836
O         77.44867       39.91930       51.16347
C         80.59698       37.89401       51.11947
C         80.85854       37.84347       49.62961
C         81.66868       38.82046       49.02443
C         80.31575       36.81944       48.83327
C         81.92341       38.77811       47.65068
C         80.57964       36.77411       47.46194
C         81.38331       37.75529       46.86526
O         81.64557       37.72317       45.54322
H         77.51007       37.53854       50.26345
H         79.03273       38.32925       52.57947
H         80.88939       36.92439       51.57236
H         81.25642       38.65790       51.58410
H         82.09890       39.62108       49.61341
H         79.70070       36.04464       49.26830
H         82.54483       39.54012       47.19732
H         80.16013       35.97407       46.86500
H         81.29718       37.02833       44.96650
N         79.62972       40.73769       51.53684
C         79.05699       42.10671       51.56615
C         80.12312       43.06193       51.06787
O         81.22471       43.05875       51.59984
C         78.58015       42.53310       53.00282
C         77.51459       41.55791       53.57160
C         78.02029       43.97518       52.97148
C         77.09222       41.85965       55.01204
H         80.02566       40.47675       52.47008
H         78.18304       42.18518       50.88307
H         79.46151       42.51563       53.68209
H         77.93394       40.53117       53.58603
H         76.60821       41.56647       52.92803
H         77.74725       44.33077       53.98402
H         78.77787       44.69285       52.59865
H         77.12410       44.03153       52.31678
H         77.97730       41.84678       55.68291
H         76.57648       42.83678       55.09569
H         76.37736       41.08157       55.35412
N         79.83481       43.94901       50.07417
C         80.78924       44.91936       49.54941
C         80.37586       46.32495       49.94668
O         79.38117       46.48352       50.63349
C         80.85787       44.77231       48.01872
O         79.60866       45.06065       47.44843
H         78.87488       43.97098       49.69589
H         81.80436       44.74284       49.96621
H         81.15313       43.72789       47.77254
H         81.62128       45.46585       47.60427
H         79.71307       44.93520       46.46983
N         81.10913       47.40283       49.55332
C         80.72088       48.78159       49.83852
C         79.39287       49.11530       49.18016
O         78.52378       49.66408       49.84398
C         81.79570       49.74915       49.33616
H         81.97176       47.23640       49.01352
H         80.64493       48.93339       50.93941
H         81.50709       50.79465       49.57990
H         82.76053       49.53076       49.84233
H         81.93487       49.65802       48.23850
N         79.16089       48.78044       47.87504
C         77.91854       49.08104       47.15772
C         76.66198       48.44466       47.75847
O         75.58224       48.72650       47.25703
C         78.04781       48.63191       45.69556
H         79.91964       48.30461       47.36180
H         77.78053       50.18461       47.17033
H         77.14299       48.91277       45.11544
H         78.92623       49.11976       45.22227
H         78.17950       47.52881       45.64289
N         76.70994       47.61172       48.83537
C         75.54043       47.04403       49.48932
C         75.38513       47.69393       50.85226
O         74.33597       48.26763       51.10991
C         75.68863       45.51445       49.59449
C         75.72361       44.86087       48.20225
C         75.83809       43.36253       48.26502
O         75.95841       42.72059       49.44331
O         75.82626       42.71588       47.23015
H         77.61515       47.37267       49.24384
H         74.60988       47.25759       48.91580
H         74.81918       45.10764       50.15675
H         76.61758       45.26066       50.15120
H         76.58445       45.25164       47.61825
H         74.78767       45.11996       47.66335
N         76.40586       47.69047       51.75559
C         76.34972       48.36238       53.03769
H         75.36611       48.84112       53.22465
H         76.55108       47.63122       53.84715
H         77.13105       49.15240       53.06724
H         77.28560       47.21967       51.52029
Ca        76.43201       39.70951       49.15732
O         78.76609       41.71423       48.06069
H         79.48354       41.27646       47.53851
H         78.55007       42.53099       47.54489
O         77.53166       40.59082       45.56972
H         76.88232       39.87071       45.37581
H         78.33692       40.34427       45.04933

Ca 1.0



