%chk=holoCaM.loop4.water3.frame94.chk
%nprocshared=20
%mem=10GB
%nosave
#b3lyp/svp scf=(tight,noincore,xqc) Test 
#IOP(5/87=12) Density=Current Pop=(MK,readradii) iop(6/33=2) iop(6/42=6)

holoCaM.loop4.water3.frame94 

   -3  1 
C         83.90573       17.79631       51.56637
C         82.75842       17.00502       51.02336
O         82.89167       16.45654       49.93797
H         84.76408       17.76579       50.85927
H         83.60363       18.84804       51.73272
H         84.23502       17.34175       52.52550
N         81.61939       16.83884       51.76084
C         80.58911       15.89169       51.36305
C         79.16007       16.41505       51.52834
O         78.86646       17.10076       52.49694
C         80.81152       14.59727       52.16220
C         79.99439       13.50725       51.56151
O         80.15953       13.23521       50.24898
O         79.15896       12.92633       52.22961
H         81.57229       17.25893       52.70190
H         80.73107       15.63182       50.29138
H         80.57411       14.75114       53.23841
H         81.87681       14.29205       52.07549
N         78.20262       16.03266       50.62945
C         76.78665       16.40012       50.67339
C         75.91585       15.14683       50.82187
O         75.06511       15.14772       51.70136
C         76.40787       17.21155       49.38829
C         77.17160       18.56475       49.38204
C         74.88493       17.45759       49.29045
C         76.98696       19.38836       48.10109
H         78.49868       15.42772       49.85380
H         76.56841       17.06050       51.54415
H         76.70073       16.61772       48.49773
H         78.25651       18.37181       49.49739
H         76.85219       19.18159       50.25065
H         74.52344       18.05724       50.15213
H         74.62224       17.98249       48.34980
H         74.32701       16.49901       49.25882
H         77.61378       20.30341       48.16033
H         77.29712       18.80553       47.20937
H         75.93722       19.71700       47.96865
N         76.03279       14.06853       49.98337
C         75.06898       12.96103       49.95692
C         75.55541       11.60939       50.46444
O         74.74829       10.69032       50.50878
C         74.50526       12.80634       48.53202
C         75.43627       12.39394       47.39875
O         76.78007       12.23129       47.47472
O         74.92183       12.21461       46.30737
H         76.78349       14.07567       49.28608
H         74.21317       13.20970       50.62224
H         74.02853       13.76655       48.24203
H         73.70151       12.03911       48.57573
N         76.82732       11.39642       50.87173
C         77.31154       10.11228       51.34914
C         77.12307        9.00701       50.32978
O         76.47641        8.01888       50.64678
H         77.47401       12.18163       50.85661
H         76.78490        9.84867       52.29123
H         78.39596       10.19794       51.58165
N         77.70205        9.09114       49.09996
C         77.67687        8.01441       48.11014
C         79.06790        7.40286       47.94072
O         79.23090        6.52681       47.10325
C         77.07442        8.49304       46.76388
C         77.80829        9.59436       46.04178
O         78.89590       10.18347       46.56567
O         77.39846        9.96813       44.95474
H         78.25139        9.93315       48.88891
H         77.01993        7.18521       48.45468
H         76.03135        8.83497       46.93766
H         77.03057        7.61728       46.07889
N         80.10230        7.76845       48.75455
C         81.42946        7.17925       48.70954
C         82.35677        7.83530       47.70763
O         83.53517        7.50489       47.72679
H         79.93335        8.42866       49.52248
H         81.37160        6.07799       48.57442
H         81.89461        7.35725       49.70357
N         81.92744        8.77685       46.82150
C         82.80499        9.49129       45.90064
C         82.69517       10.99322       46.10887
O         81.86569       11.44068       46.89256
C         82.44224        9.11085       44.44751
C         82.84984        7.65988       44.14559
C         82.54105        7.26860       42.72278
N         81.79020        6.17481       42.45394
O         82.99596        7.92986       41.80086
H         80.92875        9.00535       46.78535
H         83.87081        9.23154       46.08319
H         82.99492        9.76129       43.73729
H         81.35247        9.26443       44.27591
H         82.34548        6.96516       44.85066
H         83.94787        7.56865       44.29221
H         81.41754        5.58746       43.21405
H         81.59762        5.90019       41.47916
N         83.50999       11.83641       45.41207
C         83.44756       13.28941       45.49592
C         82.89485       13.80285       44.18325
O         83.55244       13.67981       43.15700
C         84.85614       13.89109       45.80627
C         84.89749       15.42091       45.63849
C         85.31704       13.54525       47.22843
H         84.18611       11.42905       44.74635
H         82.74804       13.60522       46.30109
H         85.58928       13.46248       45.08692
H         84.16214       15.91763       46.30584
H         85.91410       15.80616       45.86758
H         84.68558       15.70346       44.58857
H         86.34813       13.92370       47.39964
H         84.65867       14.03685       47.97216
H         85.31576       12.44917       47.39802
N         81.66388       14.38558       44.15088
C         81.08952       14.98864       42.95235
C         81.84471       16.26782       42.61949
O         82.67054       16.68798       43.40951
C         79.58723       15.25428       43.21108
C         78.83223       15.90729       42.08609
N         78.74353       15.31861       40.87196
O         78.27658       16.97791       42.28141
H         81.11287       14.40203       45.02177
H         81.18430       14.26581       42.11281
H         79.48826       15.88429       44.11837
H         79.09878       14.28059       43.41363
H         79.20197       14.41484       40.68852
H         78.21958       15.77506       40.11097
N         81.65185       16.92099       41.44245
C         82.37790       18.13672       41.08956
C         81.96144       19.31172       41.96491
O         82.83565       19.95869       42.52424
C         82.30140       18.39988       39.56941
C         80.94454       18.71452       38.99477
C         80.41278       20.00877       39.09887
C         80.22707       17.73197       38.29090
C         79.18267       20.31457       38.51021
C         78.98961       18.03547       37.71793
C         78.46419       19.32692       37.82223
O         77.27498       19.60871       37.25379
H         81.02089       16.50242       40.74768
H         83.46474       17.95192       41.25397
H         82.68916       17.47564       39.08475
H         83.00516       19.20944       39.27718
H         80.95926       20.78586       39.61872
H         80.62266       16.72882       38.18832
H         78.78969       21.32006       38.59062
H         78.44360       17.26745       37.18480
H         76.88143       20.49180       37.29757
N         80.64636       19.62083       42.16953
C         80.21387       20.72219       43.03488
C         80.74389       20.55146       44.45248
O         81.16559       21.53370       45.04681
C         78.67446       20.88984       43.05688
C         78.11589       21.23282       41.66570
C         76.65317       21.56805       41.71179
O         75.75955       20.65560       42.13738
O         76.26504       22.66572       41.34291
H         79.93294       19.03476       41.71243
H         80.62437       21.67577       42.63315
H         78.43418       21.73934       43.73567
H         78.18008       19.97551       43.45366
H         78.24795       20.37115       40.98621
H         78.66948       22.10634       41.25421
N         80.80636       19.32029       45.03233
C         81.38287       19.07953       46.35585
C         82.84375       19.49851       46.39607
O         83.22306       20.25127       47.28198
C         81.28071       17.58579       46.73763
C         79.81968       17.13263       46.86952
C         79.66872       15.69040       47.25832
O         80.63846       14.98397       47.48284
O         78.43383       15.16788       47.35487
H         80.46063       18.51627       44.48775
H         80.82024       19.65777       47.12387
H         81.77643       17.43458       47.72152
H         81.80242       16.96064       45.98106
H         79.28258       17.28360       45.91421
H         79.32934       17.74922       47.64071
N         83.71532       19.04408       45.45521
C         85.12961       19.34784       45.43086
H         85.44984       19.94348       46.30963
H         85.70151       18.39599       45.42331
H         85.36984       19.90995       44.50394
H         83.35698       18.46025       44.69744
Ca        78.58909       12.46664       48.82663
O         81.12650       10.62000       49.68089
H         80.60159       10.66241       50.51867
H         81.94614       10.12373       49.92781
O         82.74006       12.92283       49.08262
H         82.93352       12.62277       50.00484
H         82.57477       13.89475       49.16364
O         78.75297       12.96025       45.56507
H         77.87967       13.37868       45.35603
H         78.89340       12.30498       44.83752

Ca 1.0



