%chk=holoCaM-CaMKII.loop4.water2.frame7.chk
%nprocshared=20
%mem=10GB
%nosave
#b3lyp/svp scf=(tight,noincore,xqc) Test 
#IOP(5/87=12) Density=Current Pop=(MK,readradii) iop(6/33=2) iop(6/42=6)

holoCaM-CaMKII.loop4.water2.frame7 

   -3  1 
C         77.88175       71.50457       33.72804
C         78.41636       71.11035       35.07051
O         78.07603       71.74088       36.05856
H         77.19813       72.37568       33.81576
H         78.72743       71.78113       33.06298
H         77.32827       70.65247       33.28214
N         79.27878       70.06362       35.17383
C         79.87805       69.63320       36.43226
C         80.70660       70.76359       37.02122
O         81.53027       71.33497       36.31995
C         80.72399       68.36801       36.19470
C         81.35301       67.85779       37.45771
O         82.56341       67.72762       37.52147
O         80.59025       67.53322       38.51840
H         79.52379       69.55653       34.30850
H         79.06824       69.35033       37.14299
H         81.51527       68.57345       35.44112
H         80.06061       67.56885       35.79702
N         80.53183       71.12517       38.32309
C         81.19437       72.25833       38.95504
C         82.27625       71.73146       39.88243
O         83.44610       72.00658       39.65391
C         80.13319       73.13021       39.71864
C         79.00313       73.59394       38.76449
C         80.79312       74.31988       40.43990
C         77.85419       74.32779       39.46356
H         79.90224       70.55605       38.90194
H         81.69075       72.89045       38.18408
H         79.65164       72.50215       40.49738
H         78.54794       72.69645       38.30230
H         79.41788       74.23721       37.95940
H         80.05106       74.87388       41.05077
H         81.56911       73.96629       41.15026
H         81.25676       75.01520       39.71047
H         77.05542       74.54900       38.72389
H         77.42090       73.69454       40.26606
H         78.18647       75.29170       39.89690
N         81.94398       70.99413       40.97523
C         82.91476       70.53369       41.96386
C         83.90981       69.47786       41.47120
O         84.88815       69.29031       42.18252
C         82.21079       70.06075       43.26150
C         81.17694       68.98287       43.04962
O         80.61781       68.47623       44.00838
O         80.81884       68.62684       41.80303
H         80.94302       70.85132       41.15418
H         83.52663       71.41957       42.24820
H         81.69495       70.92624       43.73008
H         82.98364       69.70111       43.97538
N         83.76739       68.74743       40.31972
C         84.83822       67.86709       39.83790
C         84.59811       66.36970       39.96631
O         85.56113       65.64474       39.75615
H         82.91347       68.84948       39.75521
H         85.76610       68.05360       40.41860
H         85.09539       68.12671       38.78755
N         83.39370       65.81171       40.29214
C         83.22545       64.36275       40.50025
C         82.61531       63.64969       39.29998
O         82.29454       62.47436       39.41199
C         82.49947       64.08111       41.83555
C         81.07630       64.55198       41.89877
O         80.49929       64.57182       42.97400
O         80.45690       65.03915       40.81313
H         82.57139       66.42548       40.37844
H         84.22046       63.88066       40.62412
H         83.07210       64.61225       42.62839
H         82.51722       62.99637       42.07383
N         82.57113       64.25221       38.07887
C         82.22811       63.55321       36.85253
C         80.75255       63.35000       36.60973
O         80.44019       62.86147       35.53113
H         82.94236       65.20496       37.97437
H         82.77752       62.58753       36.79768
H         82.58324       64.17796       36.00432
N         79.78291       63.71039       37.50049
C         78.36050       63.63273       37.17265
C         77.70893       64.99227       37.29378
O         78.33848       65.92925       37.77145
C         77.63385       62.60546       38.05799
C         78.16565       61.18416       37.81938
C         77.36729       60.12366       38.53865
N         77.69307       58.82074       38.38037
O         76.41828       60.42560       39.24864
H         80.04871       64.08198       38.42395
H         78.22270       63.32195       36.11362
H         76.55472       62.61260       37.79047
H         77.73235       62.87706       39.13066
H         79.22763       61.12317       38.14144
H         78.10883       60.96127       36.73189
H         78.48425       58.54760       37.77900
H         77.14846       58.08310       38.85105
N         76.44039       65.17756       36.83228
C         75.74669       66.45319       36.88888
C         74.45301       66.26713       37.66437
O         73.53665       65.62141       37.17169
C         75.51505       66.98766       35.44501
C         74.72733       68.30318       35.42347
C         76.85887       67.20952       34.72981
H         75.94950       64.38368       36.39010
H         76.36926       67.20487       37.42280
H         74.93175       66.23325       34.87179
H         74.56554       68.63724       34.37626
H         73.72925       68.16277       35.88061
H         75.27925       69.10060       35.96041
H         77.46468       67.96462       35.27437
H         77.43975       66.26621       34.66863
H         76.69144       67.57150       33.69300
N         74.32657       66.80170       38.91014
C         73.10248       66.75915       39.70819
C         72.03878       67.63037       39.04670
O         72.33316       68.27420       38.05365
C         73.45361       67.26894       41.13686
C         72.32867       67.29568       42.14035
N         71.66311       66.16813       42.47858
O         72.02771       68.35353       42.67222
H         75.15021       67.26423       39.31402
H         72.74941       65.70723       39.77814
H         73.87060       68.29544       41.05250
H         74.25002       66.61429       41.55382
H         71.90359       65.26342       42.05068
H         70.89849       66.20500       43.16958
N         70.77698       67.71921       39.54743
C         69.79228       68.66192       39.02649
C         70.29896       70.08627       39.21191
O         70.34955       70.83551       38.24613
C         68.45026       68.48609       39.77063
C         67.41776       69.49254       39.31839
C         66.95216       69.50191       37.99239
C         66.92211       70.44340       40.22620
C         66.00883       70.44998       37.58320
C         65.98199       71.39063       39.81462
C         65.52208       71.39753       38.49039
O         64.61656       72.30813       38.08017
H         70.51347       67.12209       40.34196
H         69.61818       68.46030       37.94564
H         68.63135       68.59917       40.86207
H         68.05884       67.45899       39.60503
H         67.31887       68.77825       37.27542
H         67.26958       70.45875       41.25186
H         65.65769       70.44961       36.55896
H         65.61472       72.11962       40.52580
H         64.25877       72.98134       38.67665
N         70.69076       70.51580       40.44631
C         71.12659       71.87966       40.74640
C         72.36852       72.31059       39.96260
O         72.67402       73.49453       39.97178
C         71.36978       71.99278       42.27211
C         71.63637       73.41337       42.78923
C         71.82333       73.39637       44.27995
O         72.87137       73.78324       44.77220
O         70.83611       72.95305       45.08202
H         70.63156       69.83945       41.22037
H         70.28632       72.55206       40.46273
H         72.22195       71.33145       42.54853
H         70.45757       71.61790       42.78794
H         70.77519       74.06941       42.53966
H         72.55316       73.83261       42.32920
N         73.11218       71.43208       39.23209
C         74.23888       71.84399       38.40734
C         73.73346       72.08017       36.99882
O         73.88644       73.18296       36.49166
C         75.38416       70.80923       38.48054
C         75.89585       70.64958       39.92237
C         77.10860       69.76760       40.01875
O         78.22303       70.23391       40.60821
O         77.08708       68.62099       39.60750
H         72.84711       70.44128       39.20376
H         74.66073       72.80861       38.77137
H         76.21594       71.16068       37.83403
H         75.03798       69.82049       38.11102
H         75.08995       70.22091       40.55082
H         76.16343       71.64479       40.33357
N         73.05777       71.10994       36.32831
C         72.47361       71.32721       35.02371
H         71.73352       72.15518       35.07654
H         73.26356       71.57681       34.28614
H         71.94407       70.40869       34.69053
H         72.91790       70.19722       36.77208
Ca        79.45873       66.95970       41.24271
O         77.04858       65.04628       41.34210
H         77.25893       65.13529       42.30519
H         77.31519       64.11960       41.12118
O         77.15605       67.98280       43.11184
H         77.74452       68.71592       43.42238
H         77.38773       67.21700       43.69515

Ca 1.0



