%chk=holoCaM-CaMKII.loop4.water2.frame239.chk
%nprocshared=20
%mem=10GB
%nosave
#b3lyp/svp scf=(tight,noincore,xqc) Test 
#IOP(5/87=12) Density=Current Pop=(MK,readradii) iop(6/33=2) iop(6/42=6)

holoCaM-CaMKII.loop4.water2.frame239 

   -3  1 
C         74.72132        7.50802       46.33564
C         73.42297        6.82817       46.02452
O         72.38503        7.47037       46.03993
H         75.40553        7.42065       45.46549
H         74.56179        8.58196       46.56628
H         75.18933        7.01729       47.21556
N         73.41741        5.50312       45.72966
C         72.20898        4.74485       45.43234
C         71.28527        4.71518       46.64397
O         71.74033        4.30958       47.70495
C         72.60940        3.30704       45.06126
C         71.46671        2.45714       44.60819
O         71.68563        1.15522       44.41786
O         70.35784        2.91748       44.40048
H         74.32760        5.01506       45.71081
H         71.70701        5.19714       44.55690
H         73.07805        2.82836       45.94863
H         73.35633        3.31296       44.23716
N         69.97417        5.09893       46.55615
C         69.06583        5.08543       47.70729
C         67.93868        4.05787       47.57426
O         67.18620        3.92210       48.52915
C         68.51164        6.51518       48.00219
C         67.52646        7.01194       46.90907
C         69.67973        7.49571       48.21224
C         66.91286        8.38201       47.21448
H         69.61113        5.40847       45.64490
H         69.62802        4.77322       48.61397
H         67.94862        6.45992       48.96058
H         66.68590        6.29050       46.82718
H         68.02651        7.06149       45.92417
H         70.23096        7.64678       47.26389
H         69.32293        8.48226       48.56874
H         70.37920        7.10531       48.98141
H         66.39393        8.36382       48.19638
H         67.68409        9.17915       47.21924
H         66.17438        8.64233       46.42726
N         67.75645        3.29686       46.45184
C         66.69165        2.30065       46.31420
C         67.21727        0.87420       46.11472
O         66.39514       -0.01672       45.94744
C         65.68059        2.72907       45.22443
C         66.20868        2.84063       43.82124
O         67.49559        2.58711       43.53185
O         65.44902        3.16972       42.92457
H         68.38130        3.43490       45.65333
H         66.08955        2.25391       47.24772
H         65.26106        3.71784       45.51275
H         64.84074        1.99963       45.21598
N         68.54219        0.55086       46.22529
C         69.00272       -0.83607       46.24627
C         68.95845       -1.56299       44.91354
O         69.06757       -2.78058       44.91923
H         69.23357        1.28574       46.43222
H         68.39898       -1.39273       46.99542
H         70.05762       -0.87520       46.59527
N         68.93700       -0.88553       43.73411
C         69.02566       -1.52836       42.41499
C         70.41224       -1.30520       41.77497
O         70.57526       -1.54042       40.58578
C         67.87319       -1.04173       41.49825
C         67.97483        0.41549       41.16251
O         68.94509        1.14160       41.72918
O         67.22131        0.92584       40.34980
H         68.94487        0.13939       43.78984
H         68.90213       -2.62971       42.50226
H         66.88853       -1.24842       41.96863
H         67.92734       -1.60998       40.54388
N         71.47983       -0.96262       42.54945
C         72.86313       -0.87323       42.10386
C         73.30213        0.34172       41.28831
O         74.49656        0.37732       41.02542
H         71.33481       -0.92118       43.56316
H         73.12831       -1.80435       41.55714
H         73.49681       -0.84954       43.01878
N         72.48014        1.34608       40.83249
C         73.00055        2.45145       39.99773
C         72.68000        3.89571       40.51986
O         71.37085        4.33859       40.26305
C         72.58299        2.28045       38.52799
C         73.10656        0.95644       37.94763
C         72.84936        0.86566       36.46811
N         71.58865        0.87748       35.97892
O         73.79535        0.77719       35.69928
H         71.47519        1.27378       41.01548
H         74.11071        2.39750       39.99809
H         73.02929        3.11236       37.93940
H         71.47985        2.33471       38.43765
H         72.62821        0.09361       38.45887
H         74.20510        0.89798       38.11901
H         70.77741        0.94524       36.60978
H         71.42464        0.81676       34.96326
N         73.58092        4.86019       39.86727
C         73.28416        6.26998       40.21424
C         72.59860        6.92579       39.02244
O         73.18178        6.95618       37.94551
C         74.56624        7.03264       40.66363
C         74.28840        8.52990       40.88756
C         75.10560        6.44047       41.98317
H         74.58348        4.59913       40.00101
H         72.59872        6.32983       41.08341
H         75.34411        6.94472       39.87325
H         73.51150        8.67314       41.66683
H         75.21560        9.04760       41.21310
H         73.95119        9.01627       39.94900
H         74.34439        6.53379       42.78947
H         75.36834        5.36863       41.88688
H         76.02263        6.97804       42.30233
N         71.37467        7.52279       39.16646
C         70.71146        8.29172       38.11397
C         70.80223        9.77053       38.44790
O         71.41225       10.09558       39.45672
C         69.25038        7.82792       37.85655
C         68.23015        8.22960       38.90211
N         68.21454        7.68369       40.13672
O         67.37146        9.04806       38.60433
H         70.95002        7.52446       40.10346
H         71.25244        8.14871       37.15214
H         69.21173        6.73115       37.68325
H         68.93156        8.30614       36.90469
H         68.88474        6.95428       40.40608
H         67.49465        7.96907       40.81753
N         70.27114       10.73714       37.65757
C         70.45374       12.16322       37.92428
C         69.91404       12.57333       39.29253
O         70.63450       13.21499       40.03971
C         69.81424       13.01189       36.80742
C         70.19959       14.47168       36.91253
C         71.55242       14.85302       36.82633
C         69.22129       15.46513       37.08035
C         71.91858       16.19740       36.91336
C         69.59085       16.81294       37.16275
C         70.94209       17.18232       37.07991
O         71.31354       18.47623       37.15482
H         69.75463       10.45138       36.80804
H         71.54807       12.36126       37.90750
H         68.70973       12.87915       36.83081
H         70.17775       12.64916       35.82119
H         72.32905       14.11193       36.68779
H         68.17377       15.19939       37.14436
H         72.96399       16.47280       36.84680
H         68.82693       17.56938       37.28895
H         70.67109       19.19168       37.26229
N         68.66582       12.19202       39.69145
C         68.08098       12.52426       40.99531
C         69.02871       12.17689       42.13200
O         69.33583       13.04496       42.93937
C         66.73846       11.76658       41.15369
C         66.02139       12.05416       42.48284
C         64.72865       11.29134       42.56522
O         63.84268       11.48929       41.74878
O         64.53910       10.38698       43.54546
H         68.12068       11.60446       39.04492
H         67.87570       13.61716       41.03319
H         66.92221       10.67137       41.07998
H         66.06910       12.06160       40.31579
H         65.80843       13.14051       42.57368
H         66.66792       11.74649       43.33297
N         69.54208       10.92580       42.24018
C         70.45534       10.50381       43.30073
C         71.70860       11.36891       43.31942
O         71.99079       11.96670       44.34809
C         70.78499        9.00630       43.11891
C         69.52533        8.15586       43.39580
C         69.67569        6.69554       43.08269
O         68.63544        5.86622       43.29051
O         70.70534        6.25353       42.60579
H         69.27275       10.24497       41.51235
H         69.95838       10.62014       44.29110
H         71.58092        8.69101       43.82653
H         71.15370        8.84331       42.08399
H         68.66901        8.51797       42.79622
H         69.26383        8.27307       44.46647
N         72.48281       11.51230       42.21099
C         73.65546       12.36007       42.14154
H         74.53244       11.75113       41.83892
H         73.48948       13.14878       41.37637
H         73.88117       12.85409       43.10904
H         72.21854       11.01875       41.35945
Ca        69.75243        2.99489       40.93098
O         66.87331        4.83776       40.75506
H         66.63092        5.14484       39.84569
H         66.32796        5.40244       41.35837
O         68.97860        3.49585       38.18391
H         69.06496        2.53835       38.42149
H         68.03627        3.71325       38.39201

Ca 1.0



