%chk=holoCaM-CaMKII.loop3.water2.frame331.chk
%nprocshared=20
%mem=10GB
%nosave
#b3lyp/svp scf=(tight,noincore,xqc) Test 
#IOP(5/87=12) Density=Current Pop=(MK,readradii) iop(6/33=2) iop(6/42=6)

holoCaM-CaMKII.loop3.water2.frame331 

   0  1 
C         23.44321       56.81708       64.91916
C         22.68683       56.28358       66.09856
O         21.46436       56.31285       66.10296
H         24.06455       56.00493       64.48350
H         22.75178       57.19618       64.13846
H         24.10976       57.64151       65.24849
N         23.37510       55.74770       67.13917
C         22.73668       55.15561       68.30543
C         22.02182       56.21270       69.12476
O         22.64155       57.20444       69.48473
C         23.80323       54.45676       69.16243
C         23.23258       53.54049       70.20541
O         21.90483       53.36912       70.35917
O         23.99685       52.85373       70.86347
H         24.40518       55.72155       67.06961
H         22.03168       54.36955       67.95149
H         24.48506       55.20532       69.61698
H         24.40599       53.80270       68.49575
N         20.71890       56.04736       69.48277
C         19.97706       57.02544       70.27033
C         20.66958       57.29915       71.60198
O         20.91597       58.45988       71.89788
C         18.51628       56.54645       70.47215
C         17.57599       57.57861       71.13424
C         17.43034       58.87125       70.30872
C         16.39219       59.82638       70.91295
N         16.30529       61.06002       70.12893
H         20.23810       55.18695       69.18239
H         19.94346       57.96338       69.67867
H         18.51392       55.61493       71.07982
H         18.08259       56.29810       69.47768
H         17.93088       57.82219       72.15871
H         16.57340       57.10375       71.22165
H         17.11535       58.61478       69.27326
H         18.40288       59.40274       70.27048
H         16.67772       60.07852       71.95803
H         15.39582       59.33075       70.92932
H         15.58534       61.68899       70.55221
H         17.22756       61.55404       70.13395
H         16.02897       60.84503       69.14314
N         21.04662       56.27954       72.43175
C         21.69828       56.49179       73.73033
C         23.14930       56.00144       73.78903
O         23.75959       56.13745       74.84103
C         20.85081       55.86282       74.85982
C         20.69556       54.36284       74.81393
O         20.00706       53.74852       75.79352
O         21.18112       53.69382       73.91700
H         20.86609       55.31497       72.11937
H         21.75013       57.58010       73.95232
H         19.83743       56.31745       74.84051
H         21.31877       56.12198       75.83442
N         23.79099       55.47930       72.70579
C         25.20369       55.10566       72.71424
C         25.57565       53.92126       73.59691
O         26.76721       53.67857       73.72956
H         23.28764       55.43707       71.81579
H         25.78679       55.99198       73.04726
H         25.53841       54.86776       71.68386
N         24.65314       53.15527       74.25164
C         25.03572       52.14551       75.24311
C         25.80346       50.93509       74.70487
O         26.25517       50.15236       75.53013
C         23.80949       51.65692       76.04545
C         22.91718       50.72462       75.25823
N         22.72415       49.45140       75.67833
O         22.37484       51.11238       74.23558
H         23.65728       53.37015       74.12623
H         25.69494       52.67042       75.97118
H         23.22600       52.52993       76.41001
H         24.18310       51.11844       76.94387
H         23.17545       49.10148       76.53620
H         22.12601       48.80578       75.14515
N         25.99055       50.69502       73.37329
C         26.76690       49.55966       72.88282
C         26.04192       48.67590       71.88437
O         26.70177       47.79922       71.34390
H         25.61672       51.35557       72.67731
H         27.14091       48.91666       73.70764
H         27.65456       49.97492       72.35857
N         24.73744       48.86587       71.52273
C         24.15226       48.16955       70.36877
C         22.91473       48.92542       69.83922
O         23.19254       50.28107       69.92746
C         23.88303       46.67350       70.65915
C         22.77506       46.41036       71.65464
C         21.43164       46.39242       71.23592
C         23.07477       46.12353       72.99673
C         20.41028       46.08831       72.14281
C         22.05063       45.83338       73.90499
C         20.71739       45.80949       73.48238
O         19.74387       45.51637       74.36868
H         24.20438       49.61954       71.98020
H         24.90545       48.24032       69.55060
H         24.82038       46.20501       71.02206
H         23.64100       46.12642       69.72323
H         21.17329       46.59442       70.20429
H         24.10104       46.12540       73.34108
H         19.38170       46.06920       71.80366
H         22.29449       45.61869       74.93784
H         18.80973       45.48296       74.11688
N         22.65263       48.60416       68.42145
C         21.53848       49.40756       67.84489
C         20.38157       48.55625       67.33386
O         20.51101       47.34980       67.17754
C         22.05001       50.36146       66.71287
C         22.70811       49.56520       65.55542
C         23.00537       51.42500       67.27410
C         23.15950       50.43798       64.37983
H         22.53563       47.57541       68.29969
H         21.08216       50.03569       68.64420
H         21.17307       50.91532       66.30834
H         21.97194       48.83499       65.15821
H         23.58864       49.00189       65.93370
H         23.26774       52.18416       66.50995
H         22.49782       51.97071       68.09167
H         23.94417       50.96722       67.64968
H         23.96642       51.13815       64.67839
H         23.56914       49.79043       63.57642
H         22.30228       51.01384       63.97171
N         19.17912       49.15373       67.10285
C         17.99121       48.44205       66.64950
C         17.34520       49.16735       65.47816
O         17.84070       50.20229       65.05720
C         17.01106       48.32104       67.82742
O         16.61347       49.58869       68.26691
H         19.08385       50.15685       67.32307
H         18.25015       47.40940       66.32857
H         17.52004       47.78347       68.65868
H         16.12018       47.73189       67.51830
H         15.92002       49.43594       68.95994
N         16.21160       48.67590       64.90690
C         15.48777       49.36606       63.84467
C         14.92056       50.68683       64.34422
O         15.18352       51.71682       63.74028
C         14.34078       48.48598       63.33248
H         15.84361       47.77489       65.24898
H         16.17027       49.54297       62.98280
H         14.74783       47.53067       62.93781
H         13.61868       48.25308       64.14385
H         13.80149       49.00195       62.50941
N         14.12148       50.71599       65.45009
C         13.47447       51.92059       65.96778
C         14.47248       53.01532       66.28227
O         14.30249       54.12551       65.79755
C         12.67412       51.58419       67.23242
H         13.95693       49.82538       65.94481
H         12.75332       52.30036       65.20966
H         13.34039       51.19238       68.03110
H         12.15644       52.49162       67.61132
H         11.90599       50.81570       67.00193
N         15.55132       52.76400       67.07326
C         16.55737       53.76885       67.41022
C         17.11926       54.39659       66.14848
O         17.05183       55.61081       66.01557
C         17.69310       53.14170       68.24592
C         17.21064       52.68931       69.63419
C         18.32763       52.06076       70.41160
O         18.85401       51.03547       70.00957
O         18.74131       52.61492       71.56659
H         15.67126       51.80164       67.41772
H         16.08930       54.57755       68.01646
H         18.49054       53.89838       68.39686
H         18.13087       52.28601       67.68885
H         16.38768       51.95065       69.55685
H         16.82942       53.57442       70.18806
N         17.64474       53.62191       65.16159
C         18.13957       54.14871       63.90627
H         19.19841       53.84763       63.77108
H         17.53597       53.72940       63.07332
H         18.07672       55.25613       63.85610
H         17.66619       52.60364       65.28966
Ca        21.56842       51.31108       71.12094
O         20.62326       49.05078       72.78273
H         20.31581       48.66040       73.63859
H         19.83070       48.99973       72.19170
O         18.96023       50.98105       74.12995
H         18.77678       51.93293       74.32514
H         18.85166       50.52071       74.99954

Ca 1.0



