%chk=holoCaM.loop3.water2.frame281.chk
%nprocshared=20
%mem=10GB
%nosave
#b3lyp/svp scf=(tight,noincore,xqc) Test 
#IOP(5/87=12) Density=Current Pop=(MK,readradii) iop(6/33=2) iop(6/42=6)

holoCaM.loop3.water2.frame281 

   0  1 
C         51.52268       84.37609       64.78278
C         52.76163       83.64446       64.38019
O         53.44770       83.15111       65.26544
H         50.84995       83.68464       65.33144
H         51.80446       85.21609       65.45333
H         50.98942       84.78412       63.90093
N         53.13345       83.55403       63.06682
C         54.36310       82.89771       62.65864
C         55.32761       83.94024       62.11816
O         55.05228       84.58760       61.11810
C         54.10312       81.74946       61.66744
C         55.33580       80.90070       61.49998
O         55.28865       79.88439       60.83012
O         56.45994       81.22257       62.17485
H         52.55137       83.99957       62.34176
H         54.81670       82.42151       63.55385
H         53.74707       82.13528       60.68856
H         53.31763       81.08836       62.09462
N         56.47172       84.17494       62.80920
C         57.44524       85.21782       62.53175
C         58.12669       85.03191       61.18672
O         58.13830       85.97591       60.40918
C         58.46381       85.22465       63.69166
C         59.36238       86.46173       63.73796
C         60.22909       86.40214       65.00411
C         61.07557       87.66468       65.17976
N         61.88891       87.57160       66.39244
H         56.62588       83.61087       63.65106
H         56.91780       86.19834       62.55590
H         59.07196       84.29269       63.67402
H         57.87881       85.23685       64.64012
H         58.71824       87.36819       63.78246
H         60.00188       86.51659       62.83119
H         60.89157       85.51058       64.95068
H         59.57134       86.30046       65.89705
H         60.40507       88.55026       65.25577
H         61.73911       87.79646       64.29756
H         62.53853       86.75438       66.32606
H         62.45228       88.44563       66.49715
H         61.27441       87.46264       67.23247
N         58.69896       83.84032       60.83618
C         59.41064       83.63816       59.57117
C         58.61289       82.82095       58.56431
O         59.10036       82.63111       57.45788
C         60.80852       83.02744       59.83193
C         60.81187       81.61146       60.35649
O         59.77617       80.98750       60.51348
O         61.98654       81.01207       60.62641
H         58.60492       83.04362       61.48369
H         59.57964       84.62138       59.08036
H         61.34656       83.67748       60.55458
H         61.38424       83.02362       58.88116
N         57.36765       82.34484       58.84664
C         56.55125       81.65013       57.87023
C         57.15117       80.33682       57.43244
O         57.36712       80.15705       56.24231
H         56.94523       82.52065       59.76801
H         56.38798       82.31338       56.99162
H         55.55561       81.43563       58.31620
N         57.37982       79.34559       58.33999
C         57.78691       77.99346       57.96687
C         56.67070       76.99748       58.27928
O         56.89508       75.80091       58.15769
C         59.11685       77.60461       58.65519
C         58.97345       77.20571       60.10390
N         59.33690       75.96771       60.51745
O         58.52246       77.99673       60.90888
H         57.19063       79.53920       59.33245
H         57.98536       77.94266       56.87463
H         59.84438       78.43939       58.55419
H         59.53793       76.73417       58.10835
H         59.72260       75.27798       59.85643
H         59.23666       75.69321       61.50508
N         55.43243       77.42278       58.67483
C         54.34326       76.52775       59.00669
C         54.31043       76.14975       60.47506
O         53.37177       75.46257       60.84924
H         55.20925       78.42732       58.69012
H         54.34872       75.63484       58.34443
H         53.38941       77.06453       58.80575
N         55.26746       76.55217       61.37038
C         55.18699       76.25166       62.79991
C         55.31249       77.49343       63.67529
O         55.73609       78.53892       63.21746
C         56.26901       75.22715       63.21228
C         55.66121       73.88137       63.50258
C         55.29181       72.99985       62.47513
C         55.43202       73.51727       64.84033
C         54.71143       71.76377       62.79011
C         54.84082       72.29535       65.15031
C         54.48087       71.41041       64.12666
O         53.91137       70.22392       64.41766
H         56.08148       77.08685       61.04041
H         54.17875       75.84727       63.04290
H         56.74479       75.56662       64.15722
H         57.11470       75.17007       62.49437
H         55.45969       73.26348       61.43808
H         55.69382       74.19136       65.64730
H         54.43614       71.08111       61.99637
H         54.66153       72.04232       66.18756
H         53.73302       69.95284       65.33015
N         54.91855       77.41486       64.98208
C         54.97519       78.51259       65.94538
C         55.63068       78.01345       67.22767
O         55.20510       76.99434       67.75172
C         53.53595       79.03775       66.23666
C         52.92562       79.61408       64.92996
C         53.56353       80.11318       67.34752
C         51.49143       80.12520       65.07111
H         54.49629       76.52995       65.30220
H         55.55225       79.37393       65.54259
H         52.90515       78.19262       66.59260
H         52.90677       78.82053       64.15394
H         53.56232       80.44529       64.55788
H         54.18496       80.98142       67.04107
H         52.54339       80.46358       67.59800
H         53.97221       79.69878       68.29162
H         51.13249       80.47782       64.08110
H         50.82540       79.31090       65.42513
H         51.43030       80.98638       65.76592
N         56.61106       78.74429       67.83519
C         57.21100       78.38038       69.11652
C         56.81109       79.38429       70.18791
O         56.12823       80.34928       69.88840
C         58.74140       78.31250       68.97745
O         59.26766       79.58660       68.70426
H         56.89603       79.63343       67.41017
H         56.84767       77.38248       69.44244
H         59.00756       77.57837       68.18037
H         59.20280       77.94290       69.91728
H         59.73807       79.53833       67.83350
N         57.19627       79.19640       71.48114
C         56.87034       80.12534       72.56102
C         57.52588       81.47630       72.34547
O         56.84871       82.48743       72.46475
C         57.32487       79.55285       73.90491
H         57.73544       78.34755       71.70785
H         55.76561       80.24911       72.62897
H         56.81531       78.58231       74.08650
H         58.42344       79.39494       73.92222
H         57.04345       80.24915       74.72456
N         58.84331       81.56271       72.00196
C         59.54312       82.82469       71.76270
C         58.80200       83.68669       70.75773
O         58.62441       84.87074       71.00632
C         60.96963       82.55205       71.27008
H         59.36387       80.68097       71.86821
H         59.62399       83.38862       72.71818
H         61.52138       81.95052       72.02420
H         60.95884       81.99600       70.30778
H         61.51511       83.50948       71.12576
N         58.27801       83.13188       69.63164
C         57.47024       83.87233       68.66505
C         56.26323       84.48901       69.35806
O         56.10174       85.69953       69.28634
C         57.04219       82.93616       67.51373
C         58.26996       82.47180       66.70313
C         57.90855       81.43614       65.68255
O         58.53426       80.24518       65.67773
O         57.04642       81.65730       64.85546
H         58.42039       82.12082       69.49045
H         58.07563       84.69544       68.22217
H         56.35296       83.47365       66.82390
H         56.49738       82.06346       67.93190
H         59.04293       82.02957       67.36315
H         58.72004       83.35329       66.19907
N         55.40803       83.72348       70.09254
C         54.28927       84.25976       70.84380
H         53.35095       83.76581       70.51813
H         54.44311       84.05288       71.92498
H         54.17620       85.35684       70.71674
H         55.57456       82.71264       70.15991
Ca        58.27572       79.98073       62.62397
O         58.95954       77.49022       64.38945
H         58.39807       77.13257       65.12235
H         59.07434       76.72881       63.76759
O         60.86319       80.67534       64.05523
H         61.45259       81.08869       63.37683
H         61.31644       80.84496       64.91889

Ca 1.0



