%chk=holoCaM-CaMKII.loop4.water2.frame143.chk
%nprocshared=20
%mem=10GB
%nosave
#b3lyp/svp scf=(tight,noincore,xqc) Test 
#IOP(5/87=12) Density=Current Pop=(MK,readradii) iop(6/33=2) iop(6/42=6)

holoCaM-CaMKII.loop4.water2.frame143 

   -3  1 
C         16.96174        5.27596       80.55783
C         17.78481        5.22454       81.81297
O         18.96729        4.94014       81.73140
H         15.90693        5.55041       80.77377
H         17.38574        6.02752       79.86082
H         16.96680        4.27776       80.07144
N         17.21115        5.47997       83.01905
C         17.91284        5.42397       84.30115
C         18.48833        4.03506       84.53534
O         17.76056        3.05854       84.42368
C         16.92023        5.83282       85.40501
C         17.42331        5.75548       86.81731
O         16.78042        5.10824       87.62447
O         18.49004        6.45734       87.24926
H         16.20737        5.72170       83.02225
H         18.73546        6.16743       84.29581
H         16.01525        5.18921       85.32942
H         16.60692        6.88265       85.21686
N         19.80512        3.88898       84.87021
C         20.47723        2.60198       85.02286
C         20.80495        2.37704       86.49390
O         20.29618        1.41986       87.06120
C         21.75033        2.52950       84.10879
C         21.38903        2.86910       82.63818
C         22.42386        1.14937       84.21587
C         22.57295        2.87156       81.66603
H         20.35772        4.73817       85.02828
H         19.79144        1.78491       84.70397
H         22.48839        3.28243       84.45148
H         20.97740        3.89563       82.61946
H         20.61673        2.16579       82.25895
H         22.70556        0.93144       85.26651
H         21.74424        0.35248       83.84798
H         23.36560        1.12074       83.63005
H         22.22457        3.20893       80.66593
H         23.36530        3.56419       82.01281
H         23.00285        1.85776       81.54429
N         21.65048        3.20489       87.17895
C         22.00870        2.98397       88.58279
C         20.85273        3.19346       89.56773
O         21.05572        2.94450       90.74841
C         23.22740        3.84563       88.99039
C         23.00761        5.33653       88.97847
O         24.01640        6.14615       89.35122
O         21.93797        5.82382       88.64785
H         22.10130        3.97608       86.66806
H         22.34651        1.92678       88.67454
H         24.07390        3.60967       88.30907
H         23.53731        3.55543       90.01829
N         19.61642        3.61491       89.17396
C         18.49146        3.72394       90.08918
C         18.59679        4.88645       91.05066
O         18.52675        4.66198       92.25042
H         19.42889        3.80470       88.18045
H         18.35797        2.76117       90.62964
H         17.56741        3.88407       89.50723
N         18.70359        6.16686       90.58506
C         18.66537        7.35116       91.44510
C         17.51558        8.31110       91.10877
O         17.27269        9.20205       91.91099
C         20.02915        8.07683       91.44650
C         20.49602        8.61355       90.11589
O         19.83286        8.47927       89.10165
O         21.67992        9.25015       90.04659
H         18.80775        6.29403       89.57557
H         18.48156        7.02626       92.49257
H         20.79952        7.36511       91.81251
H         19.98148        8.92600       92.16245
N         16.76885        8.21068       89.96705
C         15.60564        9.04555       89.68521
C         15.78993        9.97225       88.49878
O         14.79033       10.48749       88.01749
H         17.00024        7.50210       89.26006
H         15.30357        9.66893       90.55367
H         14.75924        8.35664       89.47257
N         17.02416       10.29265       88.01421
C         17.24600       11.19454       86.88217
C         18.04457       10.48834       85.80392
O         18.42569        9.34721       86.00792
C         17.96562       12.46837       87.37006
C         17.04107       13.30680       88.27146
C         17.67770       14.57848       88.77574
N         16.94630       15.44169       89.51790
O         18.84381       14.84133       88.51844
H         17.85598        9.90745       88.48202
H         16.28239       11.49325       86.41372
H         18.24554       13.10013       86.49981
H         18.89439       12.19089       87.91529
H         16.71592       12.70937       89.14971
H         16.14218       13.58674       87.67953
H         15.95867       15.24069       89.73469
H         17.36233       16.31719       89.86819
N         18.28348       11.08493       84.59750
C         18.98344       10.41508       83.50277
C         20.15254       11.27038       83.02859
O         19.93859       12.36455       82.52452
C         17.98466       10.11298       82.35160
C         18.67075        9.41825       81.16381
C         16.84130        9.21510       82.85466
H         17.90291       12.02826       84.42473
H         19.38209        9.43413       83.84644
H         17.54481       11.06915       81.99064
H         19.12661        8.45492       81.47814
H         17.93080        9.21717       80.36001
H         19.45741       10.06616       80.73104
H         16.28303        9.70237       83.68097
H         16.11886        9.01102       82.03668
H         17.24547        8.24894       83.22213
N         21.42878       10.81471       83.16891
C         22.62101       11.53483       82.72148
C         22.70724       11.52828       81.19091
O         21.88784       10.88829       80.55478
C         23.85981       10.82775       83.34099
C         25.16298       11.56830       83.20214
N         25.32948       12.78082       83.77866
O         26.08946       11.05548       82.59328
H         21.55768        9.91807       83.65022
H         22.56588       12.57234       83.11578
H         23.95042        9.81588       82.89389
H         23.69564       10.69779       84.43318
H         24.56798       13.21595       84.31911
H         26.22853       13.27843       83.69981
N         23.69528       12.19505       80.52938
C         23.92591       12.07941       79.08523
C         24.30769       10.65156       78.72487
O         23.67368       10.05987       77.86259
C         25.06916       13.03242       78.66160
C         25.55107       12.79110       77.24474
C         24.69485       12.93512       76.13931
C         26.88269       12.39221       77.03041
C         25.16738       12.68180       74.84479
C         27.35095       12.14180       75.74021
C         26.49476       12.28515       74.64127
O         26.93639       12.04319       73.39037
H         24.33364       12.78556       81.08030
H         23.01006       12.36929       78.52236
H         25.92514       12.88099       79.35500
H         24.73307       14.08497       78.77761
H         23.66412       13.23547       76.27736
H         27.56191       12.26735       77.86462
H         24.50135       12.79084       73.99808
H         28.37926       11.83336       75.59838
H         27.84737       11.76722       73.21213
N         25.35702       10.05225       79.35128
C         25.84025        8.70442       79.06307
C         24.70513        7.70597       79.12303
O         24.54010        6.92110       78.19961
C         26.94973        8.34735       80.08182
C         27.60751        6.98384       79.81902
C         28.73825        6.70134       80.77566
O         29.36469        5.65912       80.67377
O         29.07798        7.58245       81.73867
H         25.82868       10.58804       80.09411
H         26.28273        8.68187       78.04256
H         26.53160        8.36251       81.11433
H         27.73914        9.12831       80.01365
H         28.01479        6.97174       78.78554
H         26.85180        6.17526       79.91825
N         23.85922        7.71759       80.18178
C         22.74161        6.79865       80.33774
C         21.77795        6.90606       79.16324
O         21.51011        5.89108       78.53520
C         22.06865        7.02576       81.70775
C         23.09439        6.74920       82.83463
C         22.46326        6.73535       84.17993
O         22.50043        5.72013       84.84819
O         21.86192        7.81954       84.68163
H         24.02113        8.43429       80.90311
H         23.12892        5.75521       80.35242
H         21.22519        6.30927       81.80322
H         21.66047        8.05802       81.79366
H         23.91337        7.49132       82.84554
H         23.54791        5.75185       82.66480
N         21.27818        8.10797       78.76536
C         20.44017        8.28466       77.59380
H         19.48673        8.77152       77.88413
H         20.96622        8.93893       76.86477
H         20.20864        7.32502       77.08542
H         21.54173        8.94969       79.28449
Ca        20.16480        7.32012       86.03624
O         21.46461       10.78246       87.20784
H         21.79506       11.35986       87.94120
H         20.57685       10.47551       87.51837
O         23.87884        8.46565       87.10978
H         24.05593        7.49751       87.00093
H         24.18217        8.67330       88.02934

Ca 1.0



