%chk=holoCaM-CaMKII.loop2.water1.frame296.chk
%nprocshared=20
%mem=10GB
%nosave
#b3lyp/svp scf=(tight,noincore,xqc) Test 
#IOP(5/87=12) Density=Current Pop=(MK,readradii) iop(6/33=2) iop(6/42=6)

holoCaM-CaMKII.loop2.water1.frame296 

   -2  1 
C         50.52825       15.70373       77.57065
C         51.95117       15.62199       77.09546
O         52.22992       16.03207       75.97820
H         49.87381       15.11447       76.89545
H         50.41990       15.29937       78.60026
H         50.19590       16.76235       77.57517
N         52.91274       15.10088       77.90553
C         54.32056       14.99116       77.52855
C         54.51206       14.09176       76.30320
O         53.60980       13.35290       75.93470
C         55.10732       14.48980       78.77389
C         56.53660       14.10333       78.54157
O         57.43640       14.94807       78.01767
O         56.88150       12.95186       78.75532
H         52.62627       14.78569       78.84596
H         54.68618       16.00114       77.25934
H         54.59522       13.58085       79.16182
H         55.05825       15.26880       79.56332
N         55.69707       14.12594       75.62497
C         56.03810       13.27832       74.48843
C         57.53832       13.38785       74.21993
O         57.95017       13.74578       73.12512
C         55.20094       13.65932       73.25559
H         56.41307       14.78482       75.94889
H         55.84082       12.21749       74.75595
H         55.39267       14.71713       72.97135
H         55.46453       13.00464       72.39725
H         54.11693       13.53960       73.45360
N         58.41107       13.08859       75.22754
C         59.86810       13.18147       75.13176
C         60.52484       12.63757       76.40835
O         61.32713       11.72099       76.29806
C         60.36872       14.60962       74.73213
C         59.81657       15.80113       75.47965
O         60.14303       16.92805       75.14521
O         58.91440       15.63866       76.45440
H         58.00546       12.77305       76.12195
H         60.21186       12.51376       74.30904
H         60.09904       14.77843       73.66905
H         61.47890       14.62430       74.78167
N         60.21481       13.12052       77.64660
C         60.79400       12.64829       78.89579
C         61.54703       13.74749       79.62841
O         62.05499       13.48169       80.70829
H         59.51640       13.85505       77.73496
H         61.49933       11.80785       78.72200
H         59.97180       12.27559       79.54411
N         61.71261       14.98713       79.08105
C         62.56303       16.02446       79.66184
C         62.01793       16.68379       80.92920
O         62.73614       17.48985       81.50510
C         62.87417       17.08229       78.57702
C         61.67242       17.82805       78.04033
N         61.83243       18.69115       77.01331
O         60.55813       17.65390       78.51209
H         61.31930       15.16631       78.14778
H         63.53578       15.54998       79.91909
H         63.34320       16.54679       77.72192
H         63.61099       17.81844       78.96168
H         62.75945       18.83742       76.58876
H         61.02627       19.20095       76.62986
N         60.77370       16.42113       81.41986
C         60.23931       17.05213       82.61934
C         60.13550       18.55514       82.47826
O         60.62198       19.26369       83.34531
H         60.16467       15.75016       80.93148
H         60.86457       16.78942       83.50175
H         59.21573       16.65926       82.80055
N         59.45980       19.09474       81.42597
C         59.22833       20.52471       81.20414
C         58.19998       20.68451       80.09373
O         58.40616       20.17070       79.00452
C         60.48896       21.35554       80.80355
C         61.57899       21.50389       81.86842
O         61.04970       20.90563       79.59821
H         59.03118       18.42779       80.76842
H         58.80848       20.96700       82.13517
H         60.11942       22.39292       80.63326
H         61.36021       19.97802       79.75473
H         61.14183       21.87797       82.81953
H         62.11622       20.55066       82.03384
H         62.33308       22.24221       81.52215
N         57.06791       21.40459       80.30777
C         56.03388       21.61224       79.29438
C         56.64261       22.33629       78.09566
O         57.22725       23.39575       78.28105
C         54.84577       22.42682       79.90421
C         54.20407       21.66376       81.10259
C         53.77165       22.72090       78.83414
C         53.24211       22.52595       81.92304
H         56.95886       21.84570       81.23208
H         55.62887       20.62646       78.97127
H         55.25648       23.39378       80.27207
H         54.97513       21.33195       81.82423
H         53.68590       20.74921       80.73982
H         52.94831       23.33807       79.24347
H         54.19855       23.29722       77.98957
H         53.34576       21.77337       78.43814
H         52.37147       22.86383       81.32947
H         52.86029       21.93477       82.78237
H         53.78102       23.41168       82.32441
N         56.49692       21.84038       76.83006
C         56.99848       22.51779       75.63311
C         55.84730       23.19260       74.91441
O         54.71786       23.04840       75.35780
C         57.67280       21.51267       74.67271
C         58.80915       20.75768       75.29122
O         58.58047       19.91548       76.31352
O         59.93554       20.85821       74.83185
H         55.92741       20.99125       76.69928
H         57.72502       23.31200       75.91341
H         58.05696       22.06352       73.78793
H         56.92317       20.76940       74.32053
N         56.04223       23.98118       73.81838
C         54.92712       24.61598       73.12499
C         54.04588       23.57243       72.43287
O         52.84645       23.62386       72.65562
C         55.37681       25.74207       72.16688
C         54.18674       26.52483       71.64962
C         53.36315       27.24142       72.54151
C         53.88645       26.54994       70.27719
C         52.26113       27.95841       72.06949
C         52.78131       27.27023       69.80955
C         51.96933       27.97232       70.70464
H         57.00616       24.16261       73.49471
H         54.32180       25.13575       73.90058
H         55.96831       25.34379       71.32591
H         56.03394       26.45064       72.71638
H         53.57127       27.25039       73.60381
H         54.50215       26.00922       69.56987
H         51.63385       28.50377       72.76346
H         52.55273       27.28379       68.75210
H         51.11471       28.52853       70.34155
N         54.54366       22.56461       71.63012
C         53.72107       21.51458       71.01676
C         52.88727       20.66714       71.97619
O         52.17107       19.79347       71.50359
C         54.75299       20.58778       70.35434
C         55.85698       21.54540       69.99365
C         55.93277       22.40340       71.25050
H         53.06429       22.00612       70.26601
H         55.18646       19.90507       71.12466
H         54.35700       19.96714       69.52227
H         56.81881       21.07244       69.70155
H         55.49319       22.17734       69.15116
H         56.46700       21.87927       72.06832
H         56.45417       23.33429       70.97686
N         52.94200       20.84443       73.32429
C         52.21662       20.05514       74.30285
C         51.15995       20.93025       74.95148
O         49.99417       20.56465       74.92185
C         53.21953       19.50831       75.33643
C         54.28938       18.63326       74.65863
C         55.32917       18.14290       75.61771
O         56.24029       17.44568       75.20225
O         55.28128       18.47075       76.92452
H         53.56195       21.55824       73.71333
H         51.70210       19.19027       73.82595
H         52.68100       18.91106       76.10430
H         53.72124       20.36050       75.84610
H         54.81995       19.21913       73.87752
H         53.80036       17.75872       74.17841
N         51.49239       22.12905       75.51013
C         50.53636       23.05302       76.08111
H         49.50069       22.65714       76.06237
H         50.82050       23.27200       77.13115
H         50.56102       24.00138       75.50161
H         52.46926       22.43170       75.50573
Ca        57.70200       17.13824       77.62009
O         57.03090       16.89818       80.39997
H         57.72125       16.20399       80.54848
H         56.56386       16.97813       81.26773

Ca 1.0



