%chk=holoCaM-CaMKII.loop2.water1.frame131.chk
%nprocshared=20
%mem=10GB
%nosave
#b3lyp/svp scf=(tight,noincore,xqc) Test 
#IOP(5/87=12) Density=Current Pop=(MK,readradii) iop(6/33=2) iop(6/42=6)

holoCaM-CaMKII.loop2.water1.frame131 

   -2  1 
C         33.84529       53.60849       65.10308
C         32.55471       53.73916       64.34759
O         32.53661       53.47688       63.15368
H         34.60398       54.28606       64.65815
H         33.71901       53.88451       66.17202
H         34.20825       52.56193       65.04879
N         31.42769       54.15852       64.98601
C         30.14603       54.35317       64.31729
C         30.30600       55.38412       63.21039
O         30.73792       56.49456       63.48738
C         29.09854       54.77485       65.36804
C         27.73836       55.02448       64.80014
O         27.14167       54.14617       64.19941
O         27.15328       56.21908       65.00037
H         31.49204       54.36273       65.99592
H         29.81455       53.38413       63.88228
H         29.43955       55.69671       65.88738
H         29.00978       53.96277       66.12264
N         30.00454       55.05637       61.92015
C         30.25571       55.92819       60.77871
C         28.97821       56.40590       60.10473
O         29.09086       57.19279       59.17438
C         31.14389       55.18078       59.77505
H         29.60330       54.12928       61.73219
H         30.79805       56.84129       61.10652
H         30.62552       54.27134       59.39956
H         31.39436       55.82806       58.90778
H         32.09181       54.86853       60.26309
N         27.73729       56.01225       60.52091
C         26.49587       56.52515       59.93522
C         25.65338       57.28396       60.95499
O         24.72712       57.95720       60.52448
C         25.69897       55.37480       59.27957
C         25.42522       54.29651       60.28420
O         26.18612       53.19269       60.24628
O         24.70056       54.50976       61.23688
H         27.66284       55.32712       61.28464
H         26.73490       57.25968       59.13536
H         26.33660       54.95035       58.47313
H         24.75358       55.72898       58.81464
N         25.88370       57.22295       62.30493
C         25.13497       58.02025       63.26768
C         24.12262       57.23888       64.08760
O         23.34133       57.89672       64.75998
H         26.61380       56.60465       62.67166
H         24.54483       58.79078       62.72931
H         25.83960       58.57396       63.92582
N         24.02370       55.87364       64.07125
C         22.88941       55.15950       64.66979
C         23.22870       54.34228       65.91341
O         22.34062       53.66136       66.40908
C         22.16733       54.31677       63.58905
C         22.92166       53.12516       63.04671
N         22.34631       52.34971       62.09898
O         24.04212       52.85246       63.44720
H         24.73489       55.32520       63.57179
H         22.12583       55.89052       65.01422
H         21.91068       54.98695       62.73881
H         21.21470       53.93600       64.01595
H         21.40230       52.56442       61.74643
H         22.84250       51.53489       61.71177
N         24.43932       54.42350       66.53661
C         24.70793       53.76308       67.80970
C         24.89644       52.25954       67.72584
O         25.07664       51.65211       68.77245
H         25.15687       55.05943       66.16705
H         23.88424       54.00398       68.51846
H         25.64525       54.17594       68.23893
N         24.90931       51.59176       66.53869
C         25.14208       50.15486       66.40539
C         26.43055       49.92912       65.61027
O         27.01342       50.89365       65.12802
C         23.85895       49.53417       65.78037
C         23.93986       48.04006       65.44372
O         22.80006       49.73465       66.68244
H         24.77075       52.12147       65.66958
H         25.30570       49.68763       67.40217
H         23.64152       50.08416       64.83893
H         21.95532       49.64064       66.16889
H         24.67949       47.85483       64.63880
H         24.18687       47.44392       66.34752
H         22.96299       47.69197       65.04727
N         26.96144       48.67979       65.47323
C         28.19811       48.38878       64.75880
C         27.86751       47.56404       63.52255
O         27.29422       46.48997       63.65422
C         29.19506       47.62562       65.69382
C         29.52688       48.46117       66.95757
C         30.48468       47.25241       64.93335
C         30.39892       47.71228       67.97365
H         26.48268       47.87990       65.91071
H         28.69617       49.32892       64.43241
H         28.70762       46.68061       66.02358
H         28.58112       48.71840       67.47965
H         30.03359       49.40786       66.66879
H         31.17923       46.65955       65.55889
H         30.24517       46.59878       64.07680
H         31.00931       48.16246       64.57166
H         30.54312       48.34196       68.87605
H         29.90690       46.76399       68.27901
H         31.40642       47.48748       67.56973
N         28.27564       47.98332       62.28977
C         28.20849       47.15664       61.08982
C         29.55413       46.48569       60.90400
O         30.45671       46.75985       61.67824
C         27.90334       48.01954       59.84604
C         26.59005       48.73375       59.91968
O         26.55161       50.07810       59.85018
O         25.54936       48.10199       60.00161
H         28.83054       48.84444       62.23334
H         27.44082       46.36035       61.20667
H         27.87923       47.37774       58.94121
H         28.71491       48.77226       59.71994
N         29.77425       45.56664       59.92695
C         31.07543       44.92812       59.76656
C         32.13900       45.93065       59.30715
O         33.18421       45.95786       59.93960
C         30.98112       43.65265       58.90492
C         32.25898       42.83406       58.91110
C         32.86771       42.46791       57.69899
C         32.84074       42.39861       60.12190
C         34.02881       41.68676       57.69671
C         34.00829       41.63080       60.11364
C         34.60040       41.27226       58.90222
H         28.98910       45.28313       59.31962
H         31.36988       44.55580       60.77151
H         30.66830       43.89291       57.87069
H         30.18858       43.01068       59.34840
H         32.43694       42.77362       56.75441
H         32.40141       42.64612       61.07861
H         34.48470       41.39911       56.75874
H         34.45053       41.30840       61.04829
H         35.49939       40.66930       58.89853
N         31.94799       46.83954       58.28718
C         32.92366       47.86943       57.91199
C         33.35700       48.80364       59.04025
O         34.27668       49.58516       58.84103
C         32.17031       48.71969       56.87913
C         31.25381       47.70897       56.23775
C         30.77286       46.91462       57.44725
H         33.80207       47.33906       57.48287
H         31.49780       49.43412       57.41402
H         32.81733       49.30360       56.19084
H         30.43713       48.13753       55.61817
H         31.88258       47.04415       55.60430
H         29.98303       47.46084       57.99878
H         30.40556       45.93401       57.09207
N         32.71538       48.79456       60.23809
C         33.02787       49.64409       61.37534
C         33.90640       48.84399       62.31313
O         34.97790       49.31921       62.66123
C         31.69986       50.15518       61.99756
C         30.96932       50.99844       60.93434
C         29.58429       51.47677       61.23514
O         29.01398       52.10927       60.36038
O         28.91789       51.22778       62.37960
H         31.92189       48.16101       60.36421
H         33.61224       50.53906       61.06076
H         31.89414       50.77302       62.90068
H         31.07810       49.28852       62.29990
H         30.85837       50.39912       60.00717
H         31.59427       51.88876       60.70447
N         33.57178       47.57010       62.66340
C         34.43939       46.68558       63.41120
H         35.38277       47.17932       63.72245
H         33.90650       46.31526       64.30940
H         34.70267       45.81659       62.76813
H         32.68956       47.17031       62.33038
Ca        26.86550       52.12631       62.11549
O         24.70972       49.96216       62.57141
H         25.48430       49.39482       62.33996
H         23.92921       49.35552       62.51349

Ca 1.0



