%chk=holoCaM.loop2.water3.frame455.chk
%nprocshared=20
%mem=10GB
%nosave
#b3lyp/svp scf=(tight,noincore,xqc) Test 
#IOP(5/87=12) Density=Current Pop=(MK,readradii) iop(6/33=2) iop(6/42=6)

holoCaM.loop2.water3.frame455 

   -2  1 
C         15.99184       94.52916       56.52191
C         16.08623       95.88956       55.89761
O         17.17748       96.28743       55.51475
H         14.94671       94.28524       56.80682
H         16.34441       93.76670       55.79568
H         16.62722       94.49009       57.43059
N         14.97255       96.65944       55.74383
C         15.00429       97.96439       55.09825
C         15.87524       98.92500       55.89217
O         15.59067       99.16639       57.05726
C         13.56800       98.49766       54.91437
C         13.52240       99.71901       54.04786
O         12.45539      100.14328       53.65414
O         14.65814      100.31158       53.65558
H         14.06614       96.28404       56.06421
H         15.42617       97.81903       54.07746
H         13.07289       98.69467       55.88986
H         12.99193       97.71101       54.37882
N         16.98786       99.47401       55.32270
C         17.94503      100.27650       56.07441
C         17.37186      101.56846       56.63868
O         17.94527      102.05119       57.60576
C         19.19000      100.57334       55.23031
H         17.20159       99.24264       54.34056
H         18.27707       99.65401       56.93567
H         18.92265      101.17522       54.33694
H         19.94653      101.12531       55.82778
H         19.64948       99.62026       54.88980
N         16.29146      102.20911       56.09238
C         15.72614      103.43000       56.67979
C         14.24473      103.31760       57.03499
O         13.81405      104.08308       57.88706
C         16.01876      104.68699       55.83149
C         15.43472      104.70792       54.44569
O         15.59947      105.69379       53.74595
O         14.75289      103.66174       53.95238
H         15.88684      101.83072       55.22834
H         16.23425      103.62581       57.64952
H         17.12006      104.80303       55.73694
H         15.62951      105.57312       56.37961
N         13.39491      102.43823       56.42428
C         11.99456      102.28948       56.80281
C         11.01236      102.79070       55.75781
O          9.82059      102.67750       56.00867
H         13.73709      101.84247       55.66352
H         11.77117      102.85204       57.73500
H         11.80353      101.21603       57.01760
N         11.40614      103.40920       54.60398
C         10.45233      104.02858       53.68043
C          9.50773      103.04580       52.98043
O          8.57892      103.51117       52.33504
C         11.17253      104.91612       52.63238
C         12.07653      104.18061       51.67025
N         12.65211      104.84673       50.64412
O         12.28947      102.98766       51.80275
H         12.40814      103.53181       54.42657
H          9.82371      104.71627       54.28953
H         11.77634      105.69102       53.15366
H         10.39484      105.43987       52.03616
H         12.48423      105.85410       50.50980
H         13.25482      104.35029       49.97172
N          9.68159      101.69445       53.04031
C          8.77992      100.72554       52.43168
C          9.41663       99.89795       51.32542
O          8.75940       98.97428       50.86648
H         10.47679      101.31933       53.55961
H          7.88015      101.21488       51.99997
H          8.43257      100.04479       53.23747
N         10.63546      100.20128       50.78620
C         11.21664       99.48974       49.64242
C         12.67751       99.13355       49.88712
O         13.22553       99.53335       50.90319
C         11.09851      100.36948       48.37101
C          9.63561      100.63843       47.98858
O         11.80503      101.57819       48.51572
H         11.13359      101.02508       51.13663
H         10.66574       98.54093       49.45922
H         11.54512       99.82222       47.51387
H         11.29384      102.16837       49.12893
H          9.10441       99.67819       47.81694
H          9.10896      101.20128       48.78812
H          9.59659      101.23726       47.05469
N         13.37332       98.37083       48.98724
C         14.79305       98.05306       49.13739
C         15.58114       98.44575       47.88385
O         15.39709       97.85130       46.83173
C         15.00959       96.56406       49.56850
C         14.34734       95.53401       48.61186
C         14.51321       96.38353       51.01810
C         14.58096       94.07478       49.01717
H         12.87417       97.98986       48.16929
H         15.21914       98.65786       49.96217
H         16.10418       96.37193       49.58240
H         14.76522       95.65323       47.59349
H         13.25062       95.70069       48.56472
H         15.00421       97.12076       51.68788
H         13.41415       96.52085       51.08405
H         14.78161       95.38454       51.41595
H         14.13715       93.40174       48.25385
H         15.66241       93.85902       49.09566
H         14.09923       93.83677       49.98634
N         16.49530       99.46192       47.94380
C         17.38945       99.85466       46.84574
C         18.43828       98.74439       46.62503
O         18.29208       97.70158       47.23224
C         18.03062      101.22443       47.20431
C         18.57909      102.03057       46.05007
O         19.14705      103.22516       46.30085
O         18.44034      101.67176       44.89126
H         16.55899       99.98833       48.82445
H         16.77254      100.01403       45.93397
H         18.80195      101.07802       47.98986
H         17.23999      101.88280       47.62086
N         19.50590       98.86244       45.78096
C         20.43431       97.76198       45.50015
C         21.19157       97.22404       46.72550
O         21.09590       96.02367       46.94142
C         21.40093       98.14479       44.35532
C         22.18502       96.96067       43.82635
C         21.51275       95.83279       43.31382
C         23.59057       96.97841       43.81127
C         22.23035       94.74600       42.80957
C         24.30497       95.89001       43.29552
C         23.62541       94.77466       42.79794
H         19.64613       99.73607       45.26737
H         19.80801       96.93298       45.10800
H         22.07703       98.96156       44.68293
H         20.79963       98.53324       43.50504
H         20.43201       95.78805       43.29865
H         24.13449       97.83536       44.18766
H         21.70230       93.88357       42.42262
H         25.38676       95.91108       43.27787
H         24.17822       93.93366       42.39934
N         21.95416       97.98611       47.57820
C         22.66354       97.43474       48.73584
C         21.70383       96.80497       49.73299
O         22.00891       95.75298       50.27671
C         23.42519       98.64202       49.30473
C         22.56064       99.81910       48.91041
C         22.11729       99.42680       47.49958
H         23.41898       96.66721       48.45453
H         23.69944       98.57277       50.38072
H         24.36519       98.75423       48.71922
H         21.67935       99.83302       49.58266
H         23.04629      100.81511       48.98510
H         21.18579       99.97929       47.26973
H         22.91288       99.65123       46.75733
N         20.49445       97.36987       49.96417
C         19.47560       96.83263       50.85835
C         19.07312       95.43034       50.41991
O         19.02442       94.53807       51.25450
C         18.27616       97.80377       50.86083
C         18.69384       99.17174       51.44428
C         17.63169      100.20583       51.26852
O         17.87455      101.24614       50.67858
O         16.40977       99.99825       51.76801
H         20.26192       98.21279       49.42458
H         19.85926       96.78101       51.90245
H         17.44589       97.39392       51.47593
H         17.91603       97.92889       49.81917
H         19.60814       99.56802       50.96101
H         18.91802       99.04654       52.52389
N         18.84777       95.15600       49.10592
C         18.52684       93.84786       48.57763
H         17.59689       93.91411       47.97837
H         19.34162       93.52102       47.89747
H         18.39767       93.08778       49.37491
H         18.96198       95.90450       48.42403
Ca        14.89254      101.63907       51.88525
O         15.11847      102.46916       48.95776
H         14.29572      101.92290       49.00574
H         14.89801      103.20251       48.33036
O         17.63210      103.18512       52.79036
H         18.19001      103.50720       52.03869
H         18.15549      103.40695       53.59995
O         15.99057      104.69766       50.68771
H         15.93884      105.66161       50.47011
H         15.27988      104.55713       51.36147

Ca 1.0



