%chk=holoCaM-CaMKII.loop3.water2.frame342.chk
%nprocshared=20
%mem=10GB
%nosave
#b3lyp/svp scf=(tight,noincore,xqc) Test 
#IOP(5/87=12) Density=Current Pop=(MK,readradii) iop(6/33=2) iop(6/42=6)

holoCaM-CaMKII.loop3.water2.frame342 

   0  1 
C         15.29255       62.18045       59.42535
C         13.83666       62.38152       59.12166
O         13.52072       63.01380       58.12494
H         15.78721       63.16496       59.55382
H         15.43412       61.59130       60.35684
H         15.77337       61.63127       58.58932
N         12.89110       61.85955       59.94812
C         11.45724       61.97277       59.73210
C         10.85075       62.73248       60.89843
O         11.13921       62.41244       62.04322
C         10.88597       60.55656       59.54292
C          9.41021       60.53870       59.27863
O          8.93170       61.19476       58.36870
O          8.61528       59.74331       60.01352
H         13.20094       61.33336       60.78042
H         11.23616       62.52895       58.79385
H         11.11052       59.91990       60.42517
H         11.38457       60.10894       58.65557
N         10.00718       63.77692       60.66149
C          9.46488       64.66132       61.69283
C          8.83084       63.89141       62.84299
O          9.10690       64.22081       63.98826
C          8.48661       65.67323       61.03725
C          8.02535       66.78732       61.99696
C          7.32345       67.95690       61.27591
C          5.98328       67.59174       60.62166
N          5.40366       68.75649       59.94757
H          9.74519       63.96394       59.68077
H         10.30905       65.25367       62.11163
H          7.61093       65.14238       60.60778
H          9.03783       66.16424       60.20447
H          8.92961       67.22090       62.47614
H          7.37379       66.37148       62.79548
H          8.01171       68.36562       60.50305
H          7.13421       68.75960       62.02147
H          5.27740       67.22419       61.39798
H          6.13003       66.78721       59.87750
H          4.49256       68.48748       59.51077
H          5.23421       69.52689       60.63461
H          6.04751       69.09535       59.19523
N          8.02362       62.82080       62.60913
C          7.37159       62.04501       63.67045
C          7.84580       60.59919       63.78190
O          7.38541       59.92141       64.69224
C          5.84223       62.06834       63.47459
C          5.36788       61.47205       62.16161
O          4.17104       61.40770       61.94663
O          6.25310       61.03041       61.23246
H          7.88436       62.56036       61.62650
H          7.59241       62.50285       64.66078
H          5.49204       63.12088       63.53683
H          5.37048       61.51094       64.31525
N          8.75928       60.04788       62.93623
C          9.23421       58.68291       63.10293
C          8.18370       57.59699       62.91138
O          8.49129       56.47701       63.29360
H          9.18176       60.62237       62.19832
H          9.64855       58.59567       64.13169
H         10.06710       58.47582       62.39634
N          6.94572       57.81607       62.35781
C          5.93415       56.75711       62.23957
C          6.12512       55.87624       60.99115
O          5.15681       55.61453       60.28778
C          4.49385       57.35323       62.29856
C          4.07463       58.14109       61.07155
N          2.83639       58.67589       60.98776
O          4.83782       58.26980       60.13133
H          6.68615       58.77204       62.09137
H          6.02318       56.11403       63.14360
H          4.40259       58.00058       63.19728
H          3.77181       56.51471       62.40650
H          2.16205       58.56953       61.75768
H          2.54875       59.18969       60.14083
N          7.33379       55.35353       60.65537
C          7.51879       54.47645       59.51736
C          7.38344       55.12973       58.15225
O          7.58707       54.39540       57.19576
H          8.15824       55.52560       61.23581
H          6.81958       53.61661       59.60255
H          8.55340       54.06905       59.56163
N          7.13109       56.46524       57.94241
C          7.21917       57.03234       56.59420
C          7.31151       58.59270       56.57284
O          6.10677       59.16306       57.02234
C          6.14603       56.48450       55.59527
C          4.74852       57.05194       55.71460
C          4.34345       58.07597       54.83524
C          3.83024       56.55767       56.65430
C          3.05371       58.60254       54.89970
C          2.52763       57.07622       56.70501
C          2.13721       58.10103       55.83211
O          0.88676       58.60148       55.90186
H          7.00647       57.09974       58.74404
H          8.20608       56.69225       56.20534
H          6.09463       55.37819       55.56615
H          6.51126       56.74787       54.58058
H          5.03197       58.47932       54.10290
H          4.11332       55.76125       57.33033
H          2.77023       59.40066       54.22413
H          1.81943       56.68343       57.42329
H          0.58881       59.32070       55.32544
N          7.54703       59.03024       55.18058
C          8.05527       60.39941       55.02443
C          7.57276       60.94605       53.69211
O          7.76345       60.29312       52.67242
C          9.61555       60.49469       55.16468
C         10.01929       61.98523       55.32066
C         10.39061       59.83843       53.99564
C         11.49642       62.20713       55.63714
H          8.15100       58.36418       54.65063
H          7.62136       61.01775       55.83388
H          9.89422       59.97222       56.10561
H          9.44932       62.41187       56.17056
H          9.75862       62.55905       54.40642
H         11.48178       59.85523       54.18433
H         10.12070       58.77481       53.85675
H         10.21177       60.38137       53.04341
H         11.67037       63.28895       55.81751
H         11.77843       61.64265       56.54920
H         12.14535       61.89834       54.79405
N          6.97487       62.16549       53.61967
C          6.55886       62.78830       52.36952
C          7.46137       63.96886       52.06776
O          8.37102       64.22387       52.84362
C          5.08509       63.21101       52.48008
O          4.26718       62.09023       52.68799
H          6.86727       62.71585       54.48673
H          6.65983       62.08320       51.51429
H          4.75205       63.70408       51.54399
H          4.94602       63.95305       53.30078
H          4.31134       61.87467       53.65609
N          7.30885       64.71949       50.94653
C          8.17663       65.84584       50.60550
C          8.13293       66.93374       51.66403
O          9.18411       67.38916       52.08521
C          7.77918       66.43973       49.25381
H          6.54688       64.46900       50.29365
H          9.22695       65.48711       50.50085
H          6.73687       66.82156       49.27860
H          8.46498       67.27449       48.99111
H          7.86356       65.66212       48.46496
N          6.93834       67.37262       52.15607
C          6.81670       68.41029       53.17956
C          7.68708       68.10317       54.38343
O          8.47790       68.95178       54.77576
C          5.34905       68.54882       53.60840
H          6.07936       66.92209       51.80738
H          7.13739       69.38590       52.75209
H          4.97069       67.59696       54.04026
H          5.24203       69.35322       54.36715
H          4.72045       68.81197       52.73079
N          7.62683       66.88839       54.98964
C          8.46919       66.50988       56.12120
C          9.94746       66.61640       55.76530
O         10.68308       67.27652       56.48518
C          8.12119       65.08500       56.60388
C          6.68042       65.02194       57.14450
C          6.35700       63.69052       57.75151
O          6.04301       63.60437       59.05773
O          6.34540       62.68567       57.06386
H          6.96720       66.19549       54.60269
H          8.27391       67.19666       56.97603
H          8.81325       64.81704       57.43302
H          8.25542       64.35597       55.77753
H          5.94125       65.23190       56.34384
H          6.56861       65.79621       57.92626
N         10.44471       66.02244       54.64860
C         11.83361       66.11513       54.25569
H         12.47643       65.62419       55.01482
H         11.98218       65.60423       53.27896
H         12.13013       67.17940       54.14115
H          9.81066       65.51152       54.03476
Ca         6.11465       60.27690       59.06153
O          3.30448       62.49922       59.42390
H          2.32364       62.58823       59.51464
H          3.48226       61.55264       59.64789
O          3.33083       60.26299       57.55005
H          3.71920       59.39842       57.83533
H          3.93095       60.58960       56.83400

Ca 1.0



