%chk=holoCaM.loop3.water3.frame435.chk
%nprocshared=20
%mem=10GB
%nosave
#b3lyp/svp scf=(tight,noincore,xqc) Test 
#IOP(5/87=12) Density=Current Pop=(MK,readradii) iop(6/33=2) iop(6/42=6)

holoCaM.loop3.water3.frame435 

   0  1 
C         98.65105       74.74996       56.26484
C         98.95917       73.38903       56.81265
O         98.13652       72.49547       56.67009
H         97.72658       75.14115       56.73662
H         99.48044       75.46221       56.45962
H         98.50132       74.67792       55.16686
N        100.14771       73.14657       57.43159
C        100.51473       71.82800       57.92574
C         99.61263       71.42865       59.07821
O         99.57708       72.13319       60.07838
C        101.99206       71.81755       58.33349
C        102.51007       70.43900       58.58833
O        101.72964       69.35250       58.46389
O        103.67782       70.30028       58.87758
H        100.83157       73.91621       57.50495
H        100.40334       71.11948       57.08400
H        102.15024       72.45960       59.22793
H        102.59577       72.22754       57.49461
N         98.80327       70.33720       58.97270
C         97.75641       70.05671       59.95034
C         98.29251       69.45041       61.24580
O         97.57972       69.50250       62.23815
C         96.60124       69.23910       59.32065
C         96.05898       69.95333       58.05579
C         94.84300       69.29181       57.39779
C         93.56875       69.40976       58.24168
N         92.41431       68.89843       57.50327
H         98.84536       69.78849       58.10329
H         97.30163       71.03736       60.21994
H         95.79363       69.14447       60.07602
H         96.94975       68.22036       59.04682
H         96.85300       69.97229       57.28192
H         95.79847       71.00736       58.29543
H         95.05465       68.22740       57.16577
H         94.66354       69.82808       56.43901
H         93.39048       70.48078       58.48686
H         93.68206       68.84310       59.18989
H         92.28117       69.44694       56.62179
H         92.55243       67.88842       57.27054
H         91.55742       69.00121       58.09291
N         99.52765       68.86791       61.32089
C        100.13482       68.39959       62.57205
C        101.51904       69.01718       62.80706
O        102.13268       68.68907       63.81362
C        100.16261       66.85207       62.65253
C        100.94980       66.13409       61.59611
O        101.56220       66.80697       60.61275
O        100.98640       64.91440       61.60153
H        100.06399       68.75577       60.45236
H         99.50692       68.70958       63.43625
H         99.11465       66.48508       62.59548
H        100.56774       66.55436       63.64496
N        102.05892       69.95048       61.96326
C        103.33092       70.61697       62.21304
C        104.56932       69.74586       62.05985
O        105.64760       70.25021       62.33941
H        101.51976       70.28125       61.15416
H        103.30437       71.04876       63.23746
H        103.44234       71.46261       61.50023
N        104.51937       68.45113       61.62818
C        105.70413       67.58586       61.56690
C        106.76493       68.01902       60.54726
O        107.83755       67.43106       60.54181
C        105.28012       66.11726       61.32489
C        104.77684       65.83077       59.92483
N        105.30158       64.81495       59.20376
O        103.87856       66.49968       59.44188
H        103.60205       68.04719       61.40754
H        106.16456       67.62006       62.57922
H        104.47934       65.86567       62.05407
H        106.14131       65.44949       61.54252
H        106.05034       64.22094       59.58792
H        104.94015       64.60618       58.26170
N        106.52825       69.00716       59.63976
C        107.47831       69.47649       58.64471
C        107.03767       69.17617       57.22119
O        107.70718       69.63689       56.30943
H        105.61784       69.46020       59.63889
H        108.48216       69.02156       58.78534
H        107.58486       70.57577       58.77120
N        105.98050       68.35234       56.94881
C        105.62427       67.92108       55.59837
C        104.14087       68.04809       55.34599
O        103.36519       67.65796       56.20637
C        105.95127       66.42259       55.44439
C        107.41575       66.12481       55.62497
C        107.83808       65.28276       56.66435
C        108.37124       66.66952       54.75169
C        109.19120       64.99247       56.83533
C        109.72714       66.37682       54.92231
C        110.14096       65.53620       55.96662
O        111.44390       65.24152       56.14264
H        105.46624       67.92107       57.72846
H        106.19071       68.47260       54.81765
H        105.65092       66.07583       54.43007
H        105.35102       65.84721       56.18344
H        107.12319       64.84697       57.34294
H        108.06802       67.31529       53.93711
H        109.49853       64.34075       57.64322
H        110.45327       66.80128       54.24129
H        112.13257       65.59218       55.56078
N        103.68605       68.40198       54.10598
C        102.29059       68.21549       53.71493
C        102.18003       67.14467       52.63498
O        103.17486       66.75153       52.04683
C        101.59046       69.54513       53.31646
C        102.29650       70.26460       52.14217
C        101.46230       70.43756       54.55878
C        101.53239       71.49421       51.64182
H        104.36220       68.69698       53.38725
H        101.73196       67.80315       54.56985
H        100.55824       69.29892       52.99157
H        102.37817       69.55979       51.28724
H        103.31982       70.57737       52.43978
H        102.45948       70.73779       54.94372
H        100.86028       71.34540       54.35384
H        100.92742       69.86787       55.34623
H        102.06705       71.93348       50.77378
H        100.50841       71.20781       51.31942
H        101.46525       72.27862       52.42253
N        100.95926       66.59494       52.37764
C        100.69170       65.56804       51.37594
C         99.66312       66.09984       50.39399
O         99.21557       67.22042       50.56503
C        100.17514       64.29986       52.07971
O         98.99522       64.57609       52.78612
H        100.16058       66.91788       52.93200
H        101.61618       65.30940       50.81723
H        100.95705       63.94345       52.78768
H         99.98129       63.50406       51.32697
H         98.72736       63.72726       53.22495
N         99.23808       65.36378       49.32615
C         98.22827       65.89212       48.41049
C         96.87626       66.07193       49.09571
O         96.07065       66.85132       48.60492
C         98.08295       65.00263       47.17514
H         99.65374       64.43682       49.15369
H         98.58528       66.88664       48.05932
H         97.35707       65.45008       46.46279
H         99.06467       64.91611       46.66135
H         97.73572       63.98760       47.46170
N         96.54492       65.36407       50.21509
C         95.28945       65.54410       50.93832
C         95.26934       66.89652       51.62042
O         94.33684       67.66393       51.43279
C         95.13209       64.45238       52.00777
H         97.20844       64.65727       50.56718
H         94.42852       65.43741       50.24127
H         95.12410       63.45208       51.52610
H         95.96203       64.47948       52.74611
H         94.17139       64.58601       52.55073
N         96.29774       67.23271       52.44537
C         96.39045       68.47341       53.20914
C         96.30353       69.67031       52.28117
O         95.43584       70.50749       52.48766
C         97.69300       68.45584       54.04568
C         97.60672       67.34268       55.11504
C         98.85549       67.13991       55.90953
O         98.83663       67.38855       57.22594
O         99.84895       66.65750       55.39788
H         97.07135       66.55571       52.51920
H         95.53996       68.53928       53.92525
H         97.84328       69.42942       54.56256
H         98.54476       68.29694       53.36279
H         97.35463       66.35608       54.67822
H         96.79182       67.61780       55.81111
N         97.12214       69.78110       51.20042
C         97.01764       70.84205       50.21926
H         96.22696       71.57913       50.47236
H         97.98806       71.37234       50.13939
H         96.76884       70.39698       49.23160
H         97.82609       69.05623       51.03363
Ca       100.51383       66.89475       58.63135
O        102.53952       64.89006       56.35234
H        102.41761       64.99724       55.37560
H        103.13073       64.10138       56.44432
O        101.34358       63.32351       58.70234
H        101.11971       64.21706       59.06288
H        102.30859       63.21516       58.89548
O         98.17177       65.25340       59.49531
H         97.72675       66.03140       59.91572
H         97.95511       65.33287       58.53252

Ca 1.0



