%chk=holoCaM.loop3.water2.frame247.chk
%nprocshared=20
%mem=10GB
%nosave
#b3lyp/svp scf=(tight,noincore,xqc) Test 
#IOP(5/87=12) Density=Current Pop=(MK,readradii) iop(6/33=2) iop(6/42=6)

holoCaM.loop3.water2.frame247 

   0  1 
C         33.75634       87.04236       55.41240
C         33.25660       88.41309       55.75122
O         32.26367       88.83357       55.17529
H         34.65558       86.77962       56.00765
H         32.96011       86.29862       55.62960
H         34.01215       86.99906       54.33384
N         33.87116       89.16330       56.70811
C         33.36138       90.46661       57.10387
C         33.53335       91.48489       55.98030
O         34.62114       91.54983       55.42475
C         34.03326       90.96229       58.40702
C         33.16829       92.00221       59.07009
O         31.92424       92.20469       58.59642
O         33.54671       92.58185       60.06994
H         34.67833       88.76508       57.21292
H         32.29222       90.31648       57.32504
H         35.05458       91.34370       58.18720
H         34.11992       90.13257       59.14251
N         32.51748       92.32306       55.60391
C         32.59952       93.21425       54.44500
C         32.70594       94.70554       54.79255
O         32.89842       95.49057       53.87474
C         31.37063       92.97469       53.53694
C         31.16403       91.51497       53.08780
C         32.37597       90.95736       52.33204
C         32.08205       89.58049       51.72612
N         33.27286       89.04649       51.06568
H         31.63739       92.31040       56.13353
H         33.52450       92.99224       53.87326
H         31.46008       93.61114       52.63065
H         30.45146       93.28760       54.08301
H         30.27275       91.49800       52.42258
H         30.94203       90.86571       53.96327
H         33.23241       90.86648       53.03277
H         32.65131       91.65274       51.51016
H         31.25913       89.67804       50.98294
H         31.75523       88.87177       52.51815
H         33.61040       89.71199       50.33248
H         34.02904       88.88899       51.77147
H         33.03686       88.13430       50.61331
N         32.60165       95.17244       56.06833
C         32.78451       96.58623       56.45880
C         33.80313       96.73892       57.59557
O         34.03772       97.86731       58.00744
C         31.44027       97.30315       56.82566
C         30.63691       96.63696       57.90255
O         29.58009       97.10174       58.29677
O         31.01028       95.41003       58.24141
H         32.40172       94.47391       56.79048
H         33.18559       97.16640       55.59887
H         30.79695       97.34428       55.92044
H         31.65978       98.35034       57.12708
N         34.48124       95.67755       58.12800
C         35.50565       95.82452       59.15100
C         34.99594       96.10587       60.55517
O         35.83900       96.22682       61.43346
H         34.35251       94.73285       57.74228
H         36.22790       96.60951       58.83560
H         36.06907       94.86843       59.22028
N         33.66845       96.18951       60.87943
C         33.21822       96.41343       62.26110
C         33.42698       95.18992       63.17139
O         33.05463       95.26062       64.33449
C         31.74875       96.90561       62.30106
C         30.72202       95.83166       62.08337
N         29.71423       95.63521       62.96634
O         30.79237       95.13808       61.09270
H         32.96646       96.12965       60.12931
H         33.79967       97.27347       62.66101
H         31.62317       97.69772       61.53099
H         31.55122       97.37359       63.28920
H         29.61885       96.22491       63.80519
H         29.00790       94.90401       62.79960
N         34.02472       94.04435       62.72292
C         34.29324       92.88419       63.55424
C         33.15101       91.88800       63.63909
O         33.35926       90.86637       64.27630
H         34.41251       94.00997       61.77648
H         34.63816       93.20160       64.56227
H         35.13851       92.32558       63.09287
N         31.94133       92.07703       63.02580
C         30.86960       91.07691       63.07584
C         30.40223       90.66359       61.69737
O         30.62187       91.37993       60.74195
C         29.63962       91.64078       63.80303
C         29.87097       91.81360       65.27324
C         30.41253       92.99900       65.79222
C         29.51503       90.77334       66.14464
C         30.58892       93.13941       67.17317
C         29.69538       90.91286       67.51893
C         30.23022       92.09868       68.04004
O         30.39938       92.24742       69.36861
H         31.76526       92.95012       62.50999
H         31.20928       90.15467       63.59571
H         28.78802       90.93402       63.68335
H         29.29840       92.59209       63.34144
H         30.68620       93.81309       65.13234
H         29.09676       89.85206       65.75643
H         30.99955       94.05875       67.57032
H         29.41424       90.09910       68.17497
H         30.15533       91.55123       69.99561
N         29.66884       89.52054       61.55527
C         28.97172       89.14565       60.32769
C         27.51048       88.86550       60.62719
O         27.18363       88.38561       61.70212
C         29.62467       87.94119       59.58975
C         29.83390       86.71503       60.51123
C         30.92685       88.40124       58.92493
C         30.40240       85.49581       59.78023
H         29.56144       88.90759       62.37671
H         28.98326       89.99715       59.61466
H         28.94477       87.64780       58.75619
H         28.85475       86.41824       60.94240
H         30.52245       86.97482       61.34344
H         30.68087       89.24314       58.25066
H         31.67516       88.73048       59.67506
H         31.36426       87.61129       58.28243
H         31.42244       85.69516       59.39282
H         30.48053       84.64463       60.48806
H         29.73871       85.20315       58.93930
N         26.57949       89.11267       59.66626
C         25.15928       88.82179       59.80822
C         24.75029       87.81606       58.74706
O         25.59227       87.37422       57.98311
C         24.36367       90.13245       59.66240
O         24.56825       90.69186       58.39245
H         26.89364       89.50888       58.76955
H         24.93291       88.39004       60.80673
H         24.69832       90.85031       60.44359
H         23.27998       89.92917       59.81407
H         23.90529       91.42452       58.30002
N         23.45332       87.42008       58.63006
C         22.98641       86.57878       57.53353
C         23.18604       87.28993       56.20383
O         23.70364       86.67943       55.27787
C         21.50542       86.24199       57.71763
H         22.76798       87.76275       59.31869
H         23.53628       85.61016       57.53524
H         21.36426       85.69660       58.67549
H         20.88404       87.16164       57.72910
H         21.16435       85.58197       56.89076
N         22.82882       88.60275       56.05463
C         22.97114       89.35406       54.80406
C         24.40570       89.47214       54.28973
O         24.58009       89.97994       53.19053
C         22.40901       90.77099       54.97806
H         22.41509       89.08321       56.86947
H         22.36958       88.82789       54.03036
H         21.35286       90.72933       55.31645
H         23.00692       91.32791       55.73283
H         22.44495       91.32712       54.01667
N         25.47181       89.00733       54.99705
C         26.84091       89.01435       54.50668
C         27.18062       87.60438       54.07540
O         27.49785       87.40827       52.91033
C         27.79221       89.52773       55.60566
C         27.49324       90.98934       55.96978
C         28.34362       91.44597       57.11481
O         29.55806       91.40597       57.03336
O         27.76654       91.91179       58.23843
H         25.31742       88.57677       55.91102
H         26.94761       89.67111       53.61339
H         28.84497       89.45296       55.25227
H         27.68686       88.89134       56.51152
H         26.42795       91.10217       56.26339
H         27.68887       91.63649       55.08769
N         27.07836       86.56267       54.94778
C         27.28757       85.18013       54.57293
H         28.10273       84.74910       55.18849
H         26.35239       84.61069       54.76283
H         27.54817       85.06582       53.50006
H         26.80839       86.74406       55.92242
Ca        30.25349       93.57157       59.14712
O         28.52304       94.62634       56.76311
H         29.02469       94.95365       55.97470
H         27.61659       94.42665       56.42054
O         27.95930       93.23745       60.89696
H         27.44673       92.59734       61.45068
H         27.33573       93.98888       60.73388

Ca 1.0



