%chk=holoCaM-CaMKII.loop3.water1.frame420.chk
%nprocshared=20
%mem=10GB
%nosave
#b3lyp/svp scf=(tight,noincore,xqc) Test 
#IOP(5/87=12) Density=Current Pop=(MK,readradii) iop(6/33=2) iop(6/42=6)

holoCaM-CaMKII.loop3.water1.frame420 

   0  1 
C         59.21418       64.34181       36.23263
C         58.34318       63.74575       37.29550
O         58.85671       63.10563       38.20281
H         60.28384       64.11209       36.42510
H         58.92651       63.93623       35.24136
H         59.08498       65.44538       36.22900
N         56.99828       63.95473       37.26489
C         56.11405       63.47922       38.31794
C         56.04069       61.95603       38.30823
O         55.58467       61.36845       37.33776
C         54.73534       64.15255       38.18770
C         53.84221       63.95743       39.37949
O         52.76975       64.53232       39.41145
O         54.21310       63.19611       40.42603
H         56.61109       64.53396       36.50311
H         56.53942       63.83777       39.27919
H         54.22133       63.81130       37.26330
H         54.90340       65.24962       38.11046
N         56.52874       61.26454       39.37176
C         56.61007       59.80891       39.47736
C         55.23715       59.14539       39.44035
O         55.06816       58.19670       38.68762
C         57.39468       59.46590       40.76522
C         57.78264       57.98861       40.91189
C         58.74936       57.83126       42.09873
C         59.21671       56.38298       42.27967
N         60.18604       56.28636       43.37272
H         56.92548       61.82264       40.14068
H         57.22138       59.42632       38.62895
H         56.83391       59.79433       41.66506
H         58.34601       60.04376       40.71648
H         58.30384       57.65320       39.98842
H         56.87324       57.36693       41.05939
H         58.25720       58.17899       43.03334
H         59.64577       58.46558       41.91523
H         59.69434       56.02465       41.34057
H         58.34041       55.73502       42.50098
H         59.75777       56.61679       44.26792
H         60.48195       55.29001       43.48495
H         61.03107       56.86430       43.15538
N         54.20246       59.61597       40.19515
C         52.86166       59.01495       40.21485
C         51.82281       59.84565       39.47053
O         50.69324       59.38600       39.36483
C         52.42113       58.72831       41.67010
C         52.64142       59.90703       42.57754
O         52.07793       61.10734       42.34482
O         53.43297       59.80012       43.50139
H         54.36731       60.46741       40.75173
H         52.86509       58.04376       39.67297
H         53.04240       57.89054       42.05609
H         51.35981       58.40034       41.70658
N         52.12384       61.03398       38.87830
C         51.18240       61.77343       38.05331
C         49.92214       62.16032       38.79013
O         48.84892       61.79277       38.33273
H         53.07300       61.41530       38.96127
H         50.91648       61.15433       37.16719
H         51.67261       62.69648       37.67864
N         49.97172       62.91164       39.92741
C         48.77325       63.34725       40.64512
C         48.63716       64.86592       40.71287
O         47.62102       65.32125       41.22157
C         48.72446       62.69898       42.04665
C         49.82574       63.09723       43.00303
N         49.87514       62.53578       44.23221
O         50.67300       63.91631       42.68418
H         50.89502       63.16927       40.29952
H         47.86754       62.99046       40.10823
H         48.76261       61.59602       41.91161
H         47.75282       62.94914       42.52538
H         49.17221       61.83947       44.52022
H         50.62140       62.79070       44.89474
N         49.58857       65.71548       40.22276
C         49.44952       67.16402       40.23056
C         50.48815       67.87039       41.08212
O         50.47940       69.08990       41.08850
H         50.44729       65.33706       39.80323
H         48.45067       67.47833       40.59756
H         49.54822       67.52069       39.18128
N         51.42719       67.18773       41.80429
C         52.48314       67.87179       42.55474
C         53.59373       66.91464       42.96616
O         53.40917       65.70989       42.92392
C         51.95186       68.61932       43.80205
C         51.36870       67.68312       44.84121
C         52.12906       67.32028       45.96744
C         50.06889       67.16634       44.70041
C         51.60492       66.44962       46.92682
C         49.54105       66.30524       45.67017
C         50.30740       65.93964       46.78218
O         49.78984       65.09921       47.70147
H         51.43470       66.16480       41.75111
H         52.95491       68.59450       41.85371
H         51.20714       69.40242       43.54619
H         52.81481       69.16065       44.24817
H         53.13591       67.69774       46.09582
H         49.45839       67.43933       43.84950
H         52.20987       66.16961       47.78050
H         48.53510       65.92027       45.55753
H         50.29136       64.81411       48.47910
N         54.81911       67.41519       43.31611
C         55.95205       66.54861       43.63647
C         56.56327       66.91516       44.97555
O         56.21325       67.93155       45.55415
C         56.96761       66.52368       42.44708
C         57.63202       67.87900       42.08578
C         56.24991       65.98458       41.19764
C         58.72127       68.32238       43.06132
H         54.96894       68.43262       43.28080
H         55.59115       65.50521       43.76169
H         57.77583       65.79720       42.66978
H         56.86837       68.67460       41.95572
H         58.15515       67.76325       41.11053
H         56.96578       65.87887       40.35641
H         55.82209       64.98401       41.41180
H         55.43454       66.66373       40.86863
H         58.32968       68.53042       44.07142
H         59.50978       67.54060       43.12195
H         59.18897       69.25573       42.68266
N         57.46550       66.06679       45.54572
C         58.09228       66.28951       46.84380
C         59.60771       66.16231       46.73164
O         60.11813       65.93857       45.64557
C         57.52508       65.25894       47.83585
O         57.82286       63.95324       47.41518
H         57.67594       65.18553       45.06108
H         57.84864       67.29971       47.23763
H         56.42149       65.37623       47.90007
H         57.93240       65.45412       48.85443
H         58.05505       63.42975       48.22542
N         60.38686       66.25871       47.84867
C         61.83115       66.03425       47.85194
C         62.16329       64.64603       47.34262
O         63.05391       64.51746       46.51434
C         62.38634       66.19001       49.27165
H         59.92677       66.46308       48.74706
H         62.33540       66.79428       47.21416
H         62.18121       67.21456       49.64730
H         61.92231       65.45323       49.96196
H         63.48702       66.03363       49.26838
N         61.46301       63.56116       47.77930
C         61.70144       62.20577       47.29783
C         61.54919       62.12012       45.78868
O         62.47969       61.67834       45.12882
C         60.73082       61.22378       47.96986
H         60.71077       63.71360       48.46969
H         62.73375       61.89759       47.57823
H         60.93156       60.18693       47.62414
H         60.86060       61.25461       49.07262
H         59.67571       61.47805       47.73242
N         60.39757       62.51847       45.17346
C         60.18907       62.38099       43.73118
C         61.12950       63.25439       42.90610
O         61.18185       63.06964       41.69731
C         58.74620       62.75031       43.32668
C         57.66846       61.93573       44.05481
C         56.30408       62.29544       43.54871
O         56.02875       62.10589       42.37834
O         55.34766       62.76901       44.36845
H         59.64345       62.89499       45.76309
H         60.36668       61.31308       43.47008
H         58.63718       62.58177       42.23113
H         58.58154       63.82560       43.52723
H         57.69834       62.11625       45.14732
H         57.83732       60.85255       43.87164
N         61.85840       64.25799       43.46647
C         62.71657       65.12317       42.68904
H         63.51928       64.52853       42.20554
H         62.12004       65.65079       41.91451
H         63.18330       65.88348       43.35189
H         61.78379       64.44595       44.46976
Ca        53.33063       62.67782       43.36319
O         53.10624       63.75335       46.14599
H         52.23706       63.57311       46.58312
H         53.70207       63.03826       46.48237

Ca 1.0



