%chk=holoCaM-CaMKII.loop2.water2.frame77.chk
%nprocshared=20
%mem=10GB
%nosave
#b3lyp/svp scf=(tight,noincore,xqc) Test 
#IOP(5/87=12) Density=Current Pop=(MK,readradii) iop(6/33=2) iop(6/42=6)

holoCaM-CaMKII.loop2.water2.frame77 

   -2  1 
C         77.88347       85.46267       96.00267
C         76.43181       85.83913       96.12747
O         75.69155       85.73538       95.16061
H         78.52719       86.32750       96.26510
H         78.10630       84.62915       96.70574
H         78.12886       85.12189       94.97473
N         75.95241       86.24075       97.33473
C         74.53993       86.47516       97.61873
C         73.97907       87.73132       96.94280
O         74.54686       88.80183       97.10391
C         74.34676       86.61925       99.14413
C         72.91403       86.48251       99.57393
O         72.58357       86.68826      100.86128
O         72.05841       86.11479       98.78829
H         76.62397       86.27881       98.11802
H         73.98880       85.56157       97.30505
H         74.75290       87.60076       99.46976
H         74.89918       85.81900       99.67959
N         72.81630       87.66963       96.23314
C         72.11914       88.79845       95.63039
C         70.64092       88.87119       96.06392
O         69.95306       89.77104       95.60196
C         72.18285       88.62817       94.10620
H         72.37540       86.76397       96.12125
H         72.62286       89.75258       95.89376
H         71.68126       87.68428       93.79594
H         71.69195       89.47954       93.58911
H         73.24260       88.58480       93.77487
N         70.06698       87.92563       96.87380
C         68.63231       87.81577       97.13881
C         68.25453       87.69523       98.62172
O         67.06260       87.73522       98.89890
C         68.08688       86.58568       96.36194
C         68.97548       85.35613       96.47518
O         69.42469       84.83791       95.46560
O         69.33086       84.86935       97.67967
H         70.64141       87.16448       97.23224
H         68.09859       88.71911       96.76782
H         68.02940       86.85243       95.28406
H         67.05040       86.35503       96.69397
N         69.16325       87.52568       99.62556
C         68.79052       87.40385      101.03452
C         67.94899       86.17981      101.40806
O         67.61146       86.06928      102.57840
H         70.16423       87.51594       99.40494
H         68.23658       88.31964      101.33473
H         69.72011       87.35884      101.64357
N         67.55666       85.23285      100.50331
C         66.69288       84.09127      100.83261
C         67.37205       83.00309      101.68387
O         66.73444       81.99154      101.94249
C         66.07541       83.50060       99.53172
C         67.04654       82.87307       98.57026
N         66.62327       82.38259       97.38534
O         68.22356       82.80525       98.85158
H         67.81682       85.35954       99.52166
H         65.81645       84.47377      101.40050
H         65.55374       84.32417       98.99705
H         65.31849       82.73258       99.79777
H         65.63157       82.43217       97.11562
H         67.29616       81.95787       96.73231
N         68.63585       83.14312      102.18172
C         69.29966       82.15752      103.02475
C         69.87185       80.96148      102.28328
O         70.52897       80.16294      102.93630
H         69.13939       84.02219      102.03703
H         68.62501       81.83850      103.84935
H         70.17722       82.65386      103.49430
N         69.69849       80.76806      100.94235
C         70.30820       79.67005      100.19736
C         71.14300       80.18942       98.98457
O         71.78666       81.39683       99.28135
C         69.21183       78.69101       99.69878
C         68.53891       77.96436      100.86546
O         68.23030       79.37578       98.96243
H         69.10923       81.41503      100.42271
H         71.00407       79.10764      100.86068
H         69.65511       77.88803       99.06839
H         68.63242       79.60927       98.08606
H         69.29308       77.37952      101.43578
H         68.04093       78.68056      101.55142
H         67.77628       77.25592      100.47641
N         72.16729       79.18824       98.65000
C         72.81888       79.33305       97.33771
C         71.88751       78.89654       96.21494
O         71.27033       77.84367       96.30097
C         74.13284       78.49475       97.35476
C         75.12181       79.11921       98.37817
C         74.78279       78.41650       95.95572
C         76.33586       78.23989       98.67805
H         71.82707       78.20596       98.76353
H         73.11990       80.39058       97.16528
H         73.87646       77.45877       97.67020
H         74.60984       79.28099       99.35044
H         75.46324       80.11231       98.00750
H         74.09794       77.92647       95.23388
H         75.03631       79.42997       95.57935
H         75.69934       77.79573       95.96703
H         76.98342       78.75256       99.42063
H         76.00032       77.27399       99.11167
H         76.94704       78.04700       97.77529
N         71.83093       79.64299       95.07863
C         71.04801       79.31795       93.89658
C         71.99569       79.00898       92.75037
O         73.20366       79.06404       92.94977
C         70.14896       80.51752       93.53165
C         69.19515       80.87870       94.63457
O         67.99134       80.83611       94.43942
O         69.66008       81.28245       95.83218
H         72.43522       80.46797       95.01282
H         70.41492       78.42113       94.07325
H         69.56218       80.27390       92.62068
H         70.77924       81.40732       93.31143
N         71.53287       78.63786       91.52248
C         72.44107       78.33825       90.42336
C         73.18128       79.58724       89.94752
O         74.38777       79.49250       89.79528
C         71.75529       77.58835       89.26461
C         72.78710       77.04332       88.29740
C         72.81334       77.46723       86.95907
C         73.74070       76.09958       88.73359
C         73.77827       76.96316       86.07903
C         74.70275       75.60262       87.85268
C         74.72250       76.03409       86.52595
H         70.51705       78.52244       91.38228
H         73.18787       77.62010       90.82640
H         71.03009       78.24300       88.74666
H         71.19043       76.72257       89.67286
H         72.09282       78.18962       86.59787
H         73.74518       75.74404       89.75621
H         73.79612       77.29405       85.04936
H         75.43255       74.88227       88.20089
H         75.46920       75.64659       85.84517
N         72.57350       80.80320       89.72770
C         73.30764       82.02040       89.38112
C         74.38511       82.43922       90.38009
O         75.07151       83.41481       90.10357
C         72.22093       83.10765       89.36517
C         71.00238       82.32926       88.93715
C         71.14874       81.05610       89.76660
H         73.75287       81.86077       88.37457
H         72.01295       83.44071       90.41056
H         72.46542       84.00513       88.75712
H         70.03263       82.85577       89.06601
H         71.13219       82.07151       87.86080
H         70.84184       81.21967       90.81933
H         70.53236       80.27298       89.28982
N         74.56428       81.79138       91.57090
C         75.52607       82.19379       92.58912
C         76.56229       81.10916       92.86427
O         77.50473       81.38285       93.59291
C         74.77419       82.49886       93.89980
C         73.54446       83.38032       93.65962
C         72.81399       83.64859       94.92866
O         72.59177       84.78972       95.24492
O         72.35783       82.65804       95.70789
H         73.94561       81.01618       91.81592
H         76.06283       83.10693       92.25019
H         75.46837       82.96961       94.63099
H         74.41229       81.54171       94.33383
H         72.82992       82.86378       92.98620
H         73.85013       84.33887       93.18452
N         76.43983       79.84951       92.34934
C         77.38323       78.77860       92.58154
H         78.24869       79.09994       93.19456
H         76.86446       77.94430       93.10035
H         77.75535       78.40896       91.60257
H         75.63016       79.60077       91.77917
Ca        70.73312       83.09466       98.10472
O         71.29817       83.93923      100.69993
H         71.63094       84.04805      101.62447
H         70.70157       84.71583      100.54942
O         73.87773       83.25346       98.66483
H         74.76896       83.30914       99.09073
H         73.97898       82.55661       97.96974

Ca 1.0



