%chk=holoCaM-CaMKII.loop2.water0.frame124.chk
%nprocshared=20
%mem=10GB
%nosave
#b3lyp/svp scf=(tight,noincore,xqc) Test 
#IOP(5/87=12) Density=Current Pop=(MK,readradii) iop(6/33=2) iop(6/42=6)

holoCaM-CaMKII.loop2.water0.frame124 

   -2  1 
C         30.38810       68.30839       78.31046
C         29.48433       69.16015       77.46178
O         29.82576       69.43705       76.32187
H         31.36954       68.81051       78.43769
H         29.95402       68.13422       79.31882
H         30.54075       67.32222       77.82422
N         28.30082       69.60866       77.96191
C         27.35046       70.42186       77.20852
C         27.96821       71.75387       76.79877
O         28.39395       72.50812       77.66208
C         26.08987       70.63772       78.07353
C         25.04456       71.48859       77.41796
O         24.53403       71.14600       76.36575
O         24.64420       72.62641       78.01517
H         28.05621       69.33835       78.92771
H         27.04125       69.85868       76.30151
H         26.38188       71.11695       79.03281
H         25.63946       69.64669       78.30226
N         28.02495       72.10286       75.47959
C         28.58293       73.35569       74.97695
C         27.54764       74.20529       74.23566
O         27.90468       75.28648       73.78845
C         29.73707       73.02168       74.02258
H         27.65488       71.43952       74.78732
H         28.98208       73.96685       75.81469
H         30.21198       73.94795       73.63448
H         30.51104       72.42484       74.54946
H         29.36306       72.42848       73.15813
N         26.26806       73.77531       74.03250
C         25.26807       74.50184       73.24397
C         23.97625       74.76646       74.00426
O         23.11230       75.42955       73.44531
C         24.96794       73.71449       71.94330
C         24.87631       72.22633       72.17544
O         25.68592       71.49574       71.62839
O         24.02395       71.69148       73.07029
H         25.99258       72.85603       74.40042
H         25.64594       75.50562       72.94910
H         25.82280       73.87840       71.25067
H         24.05925       74.10616       71.43771
N         23.75121       74.29448       75.25966
C         22.51230       74.52804       75.97719
C         21.31833       73.97731       75.23502
O         20.37490       74.72038       75.00407
H         24.47189       73.74336       75.73819
H         22.38036       75.61670       76.16278
H         22.56729       74.02028       76.96433
N         21.28111       72.66752       74.86096
C         20.09956       72.03254       74.28530
C         19.55662       70.96455       75.23435
O         18.63989       70.24871       74.85542
C         20.36552       71.49678       72.85622
C         21.32275       70.34443       72.71497
N         21.48766       69.76666       71.50345
O         21.93629       69.91359       73.67594
H         22.10629       72.07949       75.05371
H         19.28285       72.77552       74.15384
H         20.72091       72.33033       72.21118
H         19.39102       71.15013       72.44828
H         20.96999       70.10637       70.68005
H         22.11603       68.96344       71.38819
N         20.02655       70.85179       76.51604
C         19.49812       69.91616       77.49331
C         19.95315       68.48476       77.30053
O         19.55251       67.65693       78.10714
H         20.73146       71.51438       76.86671
H         18.38790       69.98252       77.50552
H         19.86079       70.22105       78.49844
N         20.77484       68.10344       76.27964
C         21.20212       66.72348       76.06328
C         22.71857       66.62554       75.91895
O         23.40300       67.64109       75.94316
C         20.51330       66.16464       74.78761
C         18.98064       66.24930       74.86700
O         20.99057       66.79822       73.62524
H         21.07995       68.80469       75.59854
H         20.89209       66.08293       76.91821
H         20.75654       65.08583       74.69453
H         20.57733       67.69683       73.57272
H         18.53279       65.79036       73.96092
H         18.61043       65.70906       75.76350
H         18.64376       67.30656       74.92318
N         23.29523       65.41079       75.69339
C         24.69541       65.21089       75.33714
C         24.70774       64.70041       73.90332
O         24.05142       63.70745       73.61595
C         25.39276       64.21543       76.31373
C         25.37788       64.77881       77.75966
C         26.84275       63.93963       75.85302
C         25.94703       63.81356       78.80536
H         22.69162       64.57410       75.69371
H         25.26033       66.16889       75.38008
H         24.83247       63.25418       76.29689
H         24.32926       64.99318       78.05602
H         25.95032       65.73216       77.80062
H         26.86163       63.52365       74.82572
H         27.44340       64.87375       75.86973
H         27.33845       63.18280       76.49185
H         25.86184       64.26929       79.81430
H         25.37841       62.85967       78.79837
H         27.02146       63.60251       78.63228
N         25.45125       65.33070       72.95261
C         25.49311       64.92973       71.54926
C         26.73670       64.11143       71.29196
O         27.49310       63.89291       72.22095
C         25.46981       66.18046       70.64786
C         24.24101       67.01039       70.87301
O         23.46179       67.21418       69.95607
O         24.00516       67.55288       72.08256
H         26.06191       66.10389       73.24362
H         24.62381       64.28018       71.30365
H         25.50653       65.87415       69.58066
H         26.36303       66.81054       70.85643
N         26.99581       63.57213       70.06792
C         28.15138       62.71544       69.82956
C         29.47502       63.45409       70.04607
O         30.26865       62.94052       70.82085
C         28.08416       62.03586       68.44488
C         29.19915       61.03017       68.27955
C         30.19079       61.22010       67.30309
C         29.25953       59.89336       69.10731
C         31.22726       60.29205       67.16280
C         30.29508       58.96756       68.96120
C         31.27926       59.16710       67.99066
H         26.32391       63.72979       69.30128
H         28.09441       61.88469       70.56853
H         28.12209       62.78264       67.63606
H         27.11513       61.50190       68.33733
H         30.16753       62.08911       66.65741
H         28.50468       59.72001       69.86407
H         31.99155       60.44597       66.41267
H         30.33375       58.09572       69.60163
H         32.08164       58.44964       67.88040
N         29.80320       64.64693       69.44292
C         31.04571       65.37550       69.70410
C         31.34626       65.51091       71.18507
O         32.46222       65.25662       71.61448
C         30.77198       66.77109       69.11539
C         29.88249       66.44416       67.94533
C         28.94360       65.40669       68.55241
H         31.88256       64.87859       69.16478
H         30.14260       67.37335       69.81093
H         31.68366       67.36064       68.88007
H         29.36990       67.31135       67.47648
H         30.51556       65.94262       67.17796
H         28.13700       65.87857       69.15434
H         28.51360       64.83258       67.71708
N         30.34680       65.89680       72.01850
C         30.46953       66.10198       73.45788
C         30.92443       64.81744       74.13238
O         31.92108       64.84879       74.84026
C         29.12229       66.67217       73.98994
C         28.91605       68.06667       73.34337
C         27.60924       68.77265       73.51933
O         27.48420       69.84647       72.95629
O         26.55716       68.28846       74.20339
H         29.42128       66.03582       71.58522
H         31.24281       66.87699       73.66238
H         29.14083       66.78360       75.09558
H         28.30163       65.97745       73.71976
H         29.02103       68.00248       72.24398
H         29.72057       68.73907       73.70964
N         30.29593       63.63635       73.88741
C         30.74019       62.35593       74.39818
H         31.62840       62.44572       75.05663
H         29.91610       61.87688       74.96528
H         31.00909       61.69981       73.54135
H         29.49148       63.62637       73.26119
Ca        24.84688       69.76643       73.96988

Ca 1.0



