%chk=holoCaM-CaMKII.loop3.water2.frame194.chk
%nprocshared=20
%mem=10GB
%nosave
#b3lyp/svp scf=(tight,noincore,xqc) Test 
#IOP(5/87=12) Density=Current Pop=(MK,readradii) iop(6/33=2) iop(6/42=6)

holoCaM-CaMKII.loop3.water2.frame194 

   0  1 
C         23.68782       62.72853       44.42512
C         25.06824       62.61210       44.99699
O         25.22140       61.99194       46.03432
H         23.02705       63.24788       45.15018
H         23.69074       63.29931       43.47285
H         23.28711       61.71231       44.22640
N         26.12666       63.19768       44.37763
C         27.49814       63.11303       44.85764
C         27.90000       64.50418       45.29740
O         28.65950       65.18139       44.61976
C         28.35936       62.51227       43.73016
C         29.77052       62.20318       44.13343
O         30.51557       61.68583       43.32026
O         30.21796       62.45382       45.37723
H         25.95659       63.74694       43.52044
H         27.58364       62.44000       45.73914
H         28.36525       63.19188       42.85129
H         27.90016       61.55031       43.41795
N         27.31518       65.01810       46.41502
C         27.43650       66.41227       46.82887
C         28.82745       66.79712       47.33231
O         29.03458       67.98398       47.54178
C         26.36045       66.75209       47.88866
C         24.93377       66.49101       47.35528
C         23.86127       66.81726       48.40026
C         22.44935       66.39424       47.94960
N         22.00825       67.08475       46.73635
H         26.68038       64.39615       46.93679
H         27.21873       67.04256       45.93678
H         26.44026       67.82708       48.16331
H         26.53756       66.14066       48.80089
H         24.81196       65.42383       47.08320
H         24.77286       67.10491       46.44380
H         23.88177       67.90355       48.63443
H         24.08854       66.25364       49.33159
H         21.73910       66.62279       48.77433
H         22.42589       65.29434       47.77752
H         21.02248       66.80416       46.52887
H         22.04409       68.12015       46.87573
H         22.59728       66.81001       45.91837
N         29.83078       65.88541       47.52555
C         31.20377       66.27406       47.87592
C         32.18427       65.95771       46.74689
O         33.33076       66.37673       46.83747
C         31.66071       65.67872       49.22576
C         31.62419       64.18099       49.28381
O         32.65299       63.53980       49.42697
O         30.44227       63.54458       49.25903
H         29.63065       64.88833       47.37354
H         31.25917       67.37723       47.99782
H         31.01574       66.06487       50.04377
H         32.69798       66.02811       49.42600
N         31.79572       65.28821       45.62602
C         32.61326       65.13297       44.44108
C         33.87316       64.33972       44.65665
O         34.93863       64.85709       44.35384
H         30.84471       64.92018       45.55642
H         32.86006       66.14077       44.04020
H         32.01725       64.60361       43.66525
N         33.82416       63.05274       45.10747
C         35.00384       62.18594       45.14051
C         34.84922       60.97956       44.20954
O         35.82204       60.25584       44.04045
C         35.35708       61.76980       46.58318
C         34.36819       60.82064       47.21300
N         34.76342       59.59590       47.63257
O         33.20713       61.16170       47.36181
H         32.91053       62.67155       45.38961
H         35.88185       62.75464       44.76445
H         35.44087       62.68157       47.21407
H         36.35873       61.28757       46.56674
H         35.74150       59.28866       47.52675
H         34.09078       58.94877       48.06828
N         33.67171       60.69999       43.57011
C         33.48291       59.61392       42.62050
C         32.53082       58.53287       43.11390
O         32.27248       57.61397       42.35275
H         32.85028       61.28710       43.73932
H         34.44782       59.11503       42.38428
H         33.09472       60.05092       41.67511
N         32.05260       58.51787       44.39502
C         31.34813       57.37451       44.98409
C         30.15067       57.81914       45.80254
O         30.29960       58.72657       46.60300
C         32.32695       56.68604       45.94717
C         33.50524       56.10651       45.21016
C         34.74179       56.76891       45.22094
C         33.37687       54.89795       44.50676
C         35.83643       56.23121       44.54208
C         34.47856       54.35125       43.84171
C         35.71328       55.01770       43.85811
O         36.78562       54.50241       43.22464
H         32.33231       59.27311       45.03673
H         31.03481       56.62695       44.22189
H         31.83163       55.87346       46.52363
H         32.67452       57.44384       46.68193
H         34.85437       57.70851       45.74182
H         32.43006       54.37157       44.48939
H         36.78206       56.75780       44.55276
H         34.37218       53.41005       43.31720
H         36.74819       53.65747       42.75456
N         28.95378       57.16279       45.72214
C         27.81081       57.49081       46.57722
C         27.42614       56.31515       47.47606
O         27.30262       55.19516       47.00366
C         26.61547       58.05688       45.76409
C         26.05190       57.06773       44.71632
C         27.04679       59.38894       45.12320
C         24.79768       57.59535       44.01306
H         28.85699       56.38371       45.05510
H         28.07801       58.31427       47.26193
H         25.80552       58.28819       46.49318
H         25.76097       56.12604       45.22485
H         26.82152       56.83352       43.95069
H         26.19741       59.90268       44.63580
H         27.42852       60.07817       45.90636
H         27.84982       59.22642       44.37405
H         24.00774       57.82901       44.75893
H         25.01528       58.50224       43.41373
H         24.41175       56.82323       43.31598
N         27.15871       56.54349       48.79759
C         26.73133       55.53408       49.76250
C         25.23238       55.65067       49.98873
O         24.59697       56.44710       49.32244
C         27.50094       55.74002       51.08747
O         27.15796       56.96597       51.68616
H         27.17172       57.51290       49.13090
H         26.94205       54.51085       49.38291
H         28.59981       55.67053       50.91776
H         27.26031       54.93424       51.81153
H         27.85794       57.62501       51.44194
N         24.59576       54.88742       50.92096
C         23.16204       54.98154       51.19426
C         22.75248       56.38716       51.60303
O         21.80498       56.91226       51.03472
C         22.77355       54.00433       52.30829
H         25.15481       54.21734       51.46891
H         22.59197       54.68709       50.28411
H         23.02536       52.96570       52.00649
H         23.31106       54.24542       53.25024
H         21.67922       54.05737       52.49587
N         23.43691       57.06044       52.57186
C         23.08318       58.40081       53.04008
C         22.95361       59.38071       51.89097
O         21.91486       60.01324       51.76176
C         24.13911       58.90500       54.03261
H         24.26210       56.59766       52.98470
H         22.10737       58.35327       53.57246
H         23.86435       59.91382       54.40801
H         24.20840       58.21410       54.89912
H         25.13878       58.96536       53.54940
N         23.96371       59.52195       50.99408
C         23.90006       60.40170       49.82975
C         22.67972       60.08819       48.97585
O         21.87338       60.98324       48.76003
C         25.21717       60.27598       49.03794
C         26.34928       61.00035       49.79106
C         27.69136       60.75606       49.18179
O         28.19761       59.65220       49.25597
O         28.38681       61.75286       48.61431
H         24.80588       58.94147       51.13367
H         23.79480       61.46071       50.15889
H         25.11885       60.75214       48.04872
H         25.44437       59.20024       48.87084
H         26.40749       60.67393       50.85071
H         26.12704       62.08991       49.77466
N         22.44725       58.84052       48.49421
C         21.25401       58.51097       47.74529
H         20.35221       58.72511       48.35955
H         21.21443       59.10391       46.80800
H         21.25299       57.42978       47.49001
H         23.11707       58.09438       48.69016
Ca        30.44251       61.18215       47.88744
O         31.55073       58.35362       49.12749
H         31.61381       58.49329       50.10467
H         31.67190       57.37852       49.00596
O         30.47773       61.05719       51.16924
H         30.05179       60.18236       51.35244
H         31.35483       61.00724       51.62564

Ca 1.0



