%chk=holoCaM.loop4.water3.frame430.chk
%nprocshared=20
%mem=10GB
%nosave
#b3lyp/svp scf=(tight,noincore,xqc) Test 
#IOP(5/87=12) Density=Current Pop=(MK,readradii) iop(6/33=2) iop(6/42=6)

holoCaM.loop4.water3.frame430 

   -3  1 
C        111.77569       -7.70343       40.15522
C        112.34217       -9.01052       40.61648
O        111.84034       -9.56766       41.58115
H        110.91275       -7.40388       40.78812
H        112.55652       -6.91791       40.21109
H        111.42705       -7.80314       39.10539
N        113.38147       -9.57614       39.94183
C        113.94850      -10.87194       40.28487
C        115.45368      -10.74268       40.47899
O        116.12230      -10.28014       39.56426
C        113.63325      -11.85648       39.14388
C        113.94069      -13.27890       39.50566
O        113.79558      -14.15966       38.67403
O        114.30742      -13.60172       40.75912
H        113.75344       -9.08646       39.11291
H        113.47194      -11.26409       41.21012
H        114.19860      -11.56179       38.23307
H        112.54763      -11.81731       38.90806
N        116.05541      -11.14012       41.63866
C        117.49296      -11.01259       41.88531
C        118.19431      -12.36318       42.06435
O        119.41702      -12.34907       42.10962
C        117.76668      -10.05420       43.09408
C        117.16988      -10.59738       44.42197
C        117.23405       -8.64514       42.77128
C        117.46619       -9.74085       45.65551
H        115.46554      -11.53909       42.37395
H        117.98038      -10.55942       40.99406
H        118.86923       -9.96870       43.22058
H        117.57895      -11.61229       44.61529
H        116.07312      -10.66543       44.33916
H        117.68554       -8.27434       41.82706
H        116.12854       -8.65297       42.66179
H        117.50824       -7.91917       43.56307
H        118.56012       -9.63204       45.80443
H        116.99728       -8.73890       45.57469
H        117.03056      -10.23150       46.55270
N        117.52362      -13.55240       42.20151
C        118.21831      -14.82972       42.42103
C        117.70564      -16.00124       41.57268
O        118.29233      -17.07129       41.66175
C        118.17349      -15.18642       43.92100
C        116.79970      -15.43574       44.49068
O        115.79737      -15.38082       43.79652
O        116.68056      -15.73441       45.79726
H        116.49878      -13.53558       42.25851
H        119.29426      -14.71235       42.16396
H        118.63864      -14.35078       44.48752
H        118.78874      -16.09562       44.09504
N        116.62926      -15.89688       40.74534
C        116.12407      -16.98936       39.92796
C        115.64274      -18.18254       40.73195
O        116.15225      -19.27248       40.51426
H        116.15424      -14.99824       40.65454
H        116.91812      -17.30706       39.21766
H        115.26388      -16.62142       39.32634
N        114.62988      -18.06218       41.63944
C        114.04177      -19.20237       42.35123
C        112.55862      -19.39033       42.01701
O        111.92712      -20.24830       42.61955
C        114.27556      -19.09479       43.87668
C        113.64361      -17.93216       44.58821
O        113.03243      -17.06432       43.98954
O        113.75763      -17.85841       45.92660
H        114.23897      -17.12384       41.80624
H        114.54320      -20.14857       42.05196
H        115.36827      -19.06285       44.07373
H        113.87821      -20.02093       44.34762
N        111.94389      -18.66878       41.03437
C        110.54881      -18.83853       40.65483
C        109.53828      -18.29669       41.65381
O        108.35704      -18.37632       41.35326
H        112.49965      -18.01988       40.46430
H        110.34896      -19.91130       40.44326
H        110.37723      -18.27359       39.71214
N        109.90504      -17.71126       42.83174
C        108.95468      -17.11799       43.77310
C        109.27503      -15.64400       43.97604
O        110.26130      -15.16467       43.43852
C        109.02707      -17.85839       45.12524
C        108.64184      -19.33918       44.99476
C        108.65526      -20.02833       46.33567
N        109.79905      -20.13571       47.05199
O        107.61955      -20.50295       46.77779
H        110.89668      -17.66230       43.07925
H        107.91604      -17.18532       43.38336
H        108.32216      -17.38576       45.84317
H        110.05584      -17.76765       45.53866
H        109.34405      -19.86528       44.31351
H        107.61874      -19.40272       44.56218
H        110.68608      -19.75276       46.69468
H        109.79892      -20.61016       47.96732
N        108.47288      -14.86422       44.76247
C        108.76506      -13.46702       45.06427
C        108.99963      -13.33661       46.56248
O        108.07900      -13.51212       47.34708
C        107.63316      -12.54170       44.53068
C        107.77557      -11.08937       45.01785
C        107.63478      -12.54363       42.99165
H        107.63200      -15.28147       45.18722
H        109.69726      -13.15232       44.55649
H        106.65278      -12.92006       44.89484
H        107.70357      -11.03716       46.12325
H        108.74196      -10.65364       44.69386
H        106.95092      -10.46603       44.60990
H        106.80922      -11.91237       42.59950
H        108.59355      -12.12901       42.60996
H        107.50895      -13.57001       42.59006
N        110.25446      -13.04621       47.01381
C        110.62086      -12.86107       48.41856
C        109.98796      -11.59069       48.96832
O        109.36416      -10.86139       48.21616
C        112.17066      -12.76315       48.47778
C        112.82599      -12.64504       49.82547
N        112.69862      -13.62230       50.74929
O        113.52563      -11.67355       50.06770
H        111.00267      -12.97440       46.31051
H        110.28245      -13.74693       48.99874
H        112.48051      -11.89755       47.86168
H        112.58758      -13.67508       48.02076
H        112.13483      -14.46128       50.55583
H        113.18138      -13.54372       51.65594
N        110.12030      -11.25308       50.27969
C        109.67015       -9.97481       50.82138
C        110.46296       -8.83119       50.19377
O        109.86031       -7.90943       49.66224
C        109.75384       -9.90428       52.37514
C        111.14583       -9.99118       52.96799
C        111.79854      -11.22684       53.12428
C        111.80946       -8.81777       53.37170
C        113.09530      -11.28462       53.63845
C        113.10889       -8.87854       53.88298
C        113.75869      -10.11373       54.01051
O        115.01610      -10.18880       54.48985
H        110.56446      -11.93354       50.89796
H        108.58937       -9.84659       50.58330
H        109.10193      -10.67076       52.84665
H        109.31469       -8.91989       52.65370
H        111.31276      -12.15392       52.86134
H        111.33065       -7.85184       53.26884
H        113.58631      -12.24343       53.74501
H        113.61162       -7.96466       54.17199
H        115.51587       -9.40167       54.74805
N        111.83028       -8.83586       50.22560
C        112.66992       -7.75055       49.71846
C        112.55004       -7.55953       48.20093
O        113.08549       -6.58406       47.69482
C        114.14231       -8.01628       50.13981
C        115.11208       -6.83289       49.97078
C        114.72373       -5.66764       50.83906
O        114.48315       -4.58032       50.34009
O        114.65319       -5.81631       52.17663
H        112.29373       -9.63330       50.67807
H        112.32545       -6.82327       50.22701
H        114.52539       -8.89336       49.57376
H        114.16113       -8.28542       51.21903
H        115.18052       -6.52483       48.90865
H        116.12666       -7.16208       50.28209
N        111.83179       -8.41627       47.41591
C        111.58864       -8.19390       45.99639
C        110.21916       -7.56443       45.80779
O        110.10683       -6.60633       45.05613
C        111.65473       -9.50216       45.18733
C        113.01377      -10.21486       45.22237
C        113.05337      -11.30612       44.14678
O        114.16872      -12.13351       44.27514
O        111.93438      -12.13675       44.15299
H        111.36496       -9.22429       47.84279
H        112.34540       -7.50417       45.55899
H        111.43405       -9.23392       44.13172
H        110.87452      -10.21121       45.53980
H        113.19920      -10.62701       46.23106
H        113.83088       -9.49995       44.98596
N        109.13212       -8.03691       46.47676
C        107.80923       -7.47777       46.32399
H        107.10742       -7.98137       47.02445
H        107.82128       -6.39238       46.55747
H        107.45277       -7.64062       45.28619
H        109.24336       -8.80482       47.14235
Ca       113.08604      -14.00547       43.57437
O        113.30896      -15.00115       46.10864
H        114.23371      -14.65069       46.14495
H        113.22929      -15.58754       46.90052
O        112.01173      -15.58203       41.04587
H        111.21204      -15.63188       40.46499
H        112.76903      -15.75638       40.43456
O        110.93238      -13.02492       41.43396
H        110.19213      -13.04793       40.77785
H        111.01850      -12.07181       41.68008

Ca 1.0



