%chk=holoCaM-CaMKII.loop4.water1.frame486.chk
%nprocshared=20
%mem=10GB
%nosave
#b3lyp/svp scf=(tight,noincore,xqc) Test 
#IOP(5/87=12) Density=Current Pop=(MK,readradii) iop(6/33=2) iop(6/42=6)

holoCaM-CaMKII.loop4.water1.frame486 

   -3  1 
C         93.48168       99.58595       80.96366
C         94.26966       99.25997       79.72976
O         94.66405       98.11778       79.56564
H         92.56099       98.96785       80.99477
H         94.10067       99.37381       81.86031
H         93.19002      100.65765       80.98699
N         94.53571      100.22574       78.81147
C         95.31633      100.00303       77.59956
C         96.75849       99.63245       77.96057
O         97.38462      100.37471       78.70403
C         95.28567      101.29660       76.76088
C         95.92018      101.15904       75.41649
O         96.03302      102.14474       74.71180
O         96.33898       99.96546       74.96486
H         94.15403      101.16949       78.98348
H         94.83094       99.19784       77.00062
H         95.79857      102.10527       77.32414
H         94.23035      101.60419       76.58533
N         97.34659       98.50488       77.45705
C         98.69401       98.03926       77.81850
C         99.67755       98.13273       76.63865
O        100.87795       98.09700       76.86670
C         98.61258       96.55854       78.33236
C         97.48267       96.38753       79.38090
C         99.96333       96.06860       78.89419
C         97.25791       94.94243       79.83348
H         96.79586       97.93628       76.80787
H         99.08925       98.69507       78.62441
H         98.34291       95.91540       77.46314
H         96.52871       96.69413       78.91296
H         97.67192       97.03163       80.26599
H         99.91036       95.00523       79.19730
H        100.76347       96.10153       78.13226
H        100.26424       96.68250       79.76914
H         98.12396       94.55218       80.40267
H         96.37243       94.90156       80.50231
H         97.06540       94.28821       78.95695
N         99.23963       98.21812       75.35328
C        100.10376       98.24603       74.16783
C         99.92554       99.54186       73.35928
O        100.56587       99.68199       72.32665
C         99.88453       96.96512       73.30547
C         98.47783       96.76685       72.80161
O         98.20979       95.83882       72.05694
O         97.52708       97.62345       73.19857
H         98.23115       98.24293       75.21048
H        101.17411       98.22143       74.46802
H        100.16414       96.07245       73.90657
H        100.56994       97.01070       72.43094
N         99.14120      100.56367       73.81258
C         99.05674      101.87980       73.19921
C         98.38983      101.94337       71.84046
O         99.02463      102.45037       70.92579
H         98.66062      100.46353       74.71255
H        100.08141      102.31006       73.13861
H         98.47172      102.54287       73.86999
N         97.09978      101.52714       71.63700
C         96.39052      101.76223       70.37158
C         95.08137      102.52859       70.52889
O         94.50009      102.85800       69.50430
C         96.22759      100.45558       69.57289
C         95.39917       99.35835       70.17483
O         95.50676       98.23422       69.71233
O         94.60698       99.52914       71.24336
H         96.61178      101.04086       72.40209
H         97.01736      102.41007       69.72084
H         97.25746      100.05575       69.44847
H         95.82634      100.66320       68.55798
N         94.55505      102.86474       71.74533
C         93.33874      103.65075       71.89047
C         92.18708      102.86375       72.46797
O         91.10304      103.43011       72.52990
H         95.02060      102.57042       72.60685
H         92.99230      104.02369       70.90392
H         93.54664      104.54173       72.52220
N         92.30359      101.56840       72.88986
C         91.13263      100.79080       73.28524
C         91.46003       99.61714       74.18973
O         92.62361       99.35214       74.46657
C         90.32326      100.40239       72.01897
C         91.10016       99.66670       70.90415
C         91.42733       98.22175       71.19073
N         90.87270       97.24226       70.43938
O         92.21381       97.92580       72.07544
H         93.22603      101.11115       72.88683
H         90.49248      101.43130       73.93341
H         89.98111      101.35446       71.56103
H         89.40635       99.83307       72.27901
H         92.02685      100.21851       70.63703
H         90.44815       99.69149       70.00501
H         90.21052       97.45967       69.68131
H         91.10517       96.25746       70.60954
N         90.43572       98.91878       74.75956
C         90.61495       97.85965       75.74317
C         89.90980       96.60112       75.25519
O         88.73217       96.66803       74.92770
C         90.04935       98.31765       77.11922
C         90.38719       97.29461       78.21858
C         90.61927       99.68639       77.53517
H         89.46671       99.19861       74.53868
H         91.69514       97.65464       75.90004
H         88.94382       98.42224       77.04770
H         89.96285       97.61843       79.19261
H         89.96946       96.29666       77.97999
H         91.48927       97.20356       78.33588
H         90.20540       99.99181       78.52005
H         91.72760       99.65040       77.60698
H         90.33352      100.47073       76.80294
N         90.55797       95.40424       75.23878
C         89.93945       94.14354       74.83710
C         89.58348       93.32791       76.06302
O         89.87098       93.75392       77.17106
C         90.93794       93.34779       73.96970
C         91.28024       94.07462       72.70233
N         92.54149       94.51094       72.47494
O         90.40830       94.26239       71.86836
H         91.51724       95.36514       75.60184
H         88.99379       94.32434       74.27979
H         90.53119       92.35274       73.69190
H         91.86058       93.17317       74.56794
H         93.28393       94.36614       73.17433
H         92.78017       95.00301       71.60230
N         88.94127       92.13081       75.93626
C         88.65703       91.26342       77.07591
C         89.95357       90.81565       77.72327
O         90.03595       90.78871       78.94268
C         87.84308       90.02545       76.64835
C         87.55364       89.14344       77.84480
C         86.81535       89.63894       78.93557
C         88.04849       87.82991       77.89476
C         86.59102       88.84060       80.05941
C         87.81906       87.03156       79.01951
C         87.09307       87.53702       80.10801
O         86.87528       86.78306       81.20406
H         88.66602       91.81585       74.99290
H         88.04719       91.83133       77.81195
H         88.41583       89.46233       75.87797
H         86.88226       90.34781       76.19228
H         86.42278       90.64762       78.92511
H         88.62236       87.42659       77.06984
H         86.03166       89.23973       80.89632
H         88.21270       86.02358       79.04675
H         87.21243       85.87938       81.28201
N         91.02238       90.48901       76.94669
C         92.33968       90.15987       77.47468
C         92.83071       91.27850       78.38070
O         93.16262       91.01239       79.52773
C         93.30525       89.93516       76.28464
C         94.74301       89.59356       76.69685
C         95.59340       89.36171       75.47832
O         96.65477       90.15368       75.23317
O         95.32646       88.45587       74.70401
H         90.90336       90.53062       75.92227
H         92.27979       89.21571       78.06169
H         93.32952       90.84819       75.64814
H         92.90129       89.09921       75.67078
H         94.75540       88.67932       77.32732
H         95.17266       90.43645       77.28012
N         92.89948       92.55951       77.92284
C         93.42483       93.66459       78.72541
C         92.52154       94.01217       79.90853
O         92.95972       94.74869       80.78135
C         93.63164       94.92281       77.85003
C         94.56449       94.64087       76.65195
C         94.73616       95.81890       75.74148
O         95.97078       96.24621       75.43341
O         93.77279       96.33639       75.20277
H         92.59469       92.73276       76.95531
H         94.41873       93.35084       79.11566
H         94.06227       95.74109       78.46585
H         92.64042       95.25540       77.48581
H         94.15894       93.82971       76.01951
H         95.55780       94.31843       77.02790
N         91.24075       93.55570       79.99007
C         90.35510       93.86763       81.09011
H         89.35406       93.41853       80.90403
H         90.75909       93.44601       82.03383
H         90.23297       94.96686       81.18602
H         90.85956       92.98529       79.23402
Ca        95.44446       98.33767       72.89430
O         95.57845       94.72731       71.81925
H         95.55122       95.69912       72.00542
H         95.32274       94.65282       70.86598

Ca 1.0



