%chk=holoCaM.loop1.water2.frame479.chk
%nprocshared=20
%mem=10GB
%nosave
#b3lyp/svp scf=(tight,noincore,xqc) Test 
#IOP(5/87=12) Density=Current Pop=(MK,readradii) iop(6/33=2) iop(6/42=6)

holoCaM.loop1.water2.frame479 

   0  1 
C         75.84800       75.99416       65.52136
C         74.50334       76.01962       64.86092
O         74.29592       76.79885       63.94272
H         76.53473       76.72751       65.04897
H         75.72798       76.25824       66.59393
H         76.28974       74.97874       65.44458
N         73.52838       75.17656       65.29073
C         72.17567       75.18255       64.75152
C         71.48666       76.50140       65.10150
O         71.40016       76.83478       66.27477
C         71.39761       73.98173       65.32175
C         69.98979       73.93424       64.82076
O         68.97894       73.99750       65.70377
O         69.75455       73.83762       63.62671
H         73.76523       74.50529       66.03922
H         72.22312       75.04112       63.64691
H         71.38232       74.03692       66.43186
H         71.90699       73.03674       65.02778
N         70.95852       77.28610       64.11897
C         70.30346       78.57586       64.33925
C         68.80665       78.55708       64.01655
O         68.16487       79.56988       64.25966
C         70.95831       79.64551       63.43280
C         72.42099       79.94562       63.77335
C         72.98450       80.99700       62.80300
C         74.39920       81.43147       63.20345
N         74.92266       82.43133       62.27173
H         71.03104       76.94745       63.15907
H         70.39009       78.87274       65.40661
H         70.39786       80.60145       63.52908
H         70.88327       79.31007       62.37236
H         73.03460       79.02436       63.70683
H         72.46346       80.33489       64.81341
H         72.32955       81.89601       62.80804
H         72.99850       80.57588       61.77250
H         75.07665       80.54956       63.21728
H         74.36706       81.86952       64.22612
H         75.87126       82.73379       62.59095
H         75.00240       82.02208       61.31251
H         74.29454       83.26772       62.24619
N         68.18568       77.48879       63.44009
C         66.76665       77.48569       63.05570
C         65.98388       76.30830       63.66125
O         64.83042       76.11799       63.30218
C         66.61359       77.60804       61.51620
C         67.26685       76.52282       60.71362
O         67.13273       76.49554       59.50146
O         68.01570       75.60044       61.33585
H         68.75243       76.66139       63.22422
H         66.25576       78.39601       63.43773
H         67.04727       78.57950       61.18936
H         65.52830       77.63159       61.27433
N         66.50266       75.56589       64.67905
C         65.75198       74.59296       65.46591
C         65.40158       73.28491       64.78289
O         64.25697       72.86491       64.87254
H         67.44536       75.79324       65.01988
H         64.83945       75.07081       65.88607
H         66.38687       74.30789       66.33183
N         66.35799       72.54211       64.16250
C         66.16955       71.15720       63.71751
C         67.32006       70.24997       64.17216
O         67.31964       69.08611       63.79478
C         65.90908       71.08794       62.19740
C         66.80528       71.96427       61.39123
O         66.31387       72.88742       60.75977
O         68.13794       71.82017       61.39837
H         67.28002       72.97493       64.01468
H         65.25658       70.71326       64.17329
H         64.87159       71.45348       62.02811
H         65.94722       70.03884       61.83382
N         68.29648       70.67593       65.03069
C         69.35759       69.81298       65.52924
C         70.39987       69.43090       64.49806
O         71.30175       68.68886       64.86531
H         68.26025       71.62190       65.42456
H         68.90426       68.89784       65.96888
H         69.89870       70.34415       66.34284
N         70.37329       69.88913       63.21241
C         71.38094       69.53648       62.21491
C         72.08237       70.78165       61.68686
O         71.67480       71.89134       62.01174
C         70.73350       68.71348       61.07243
C         70.18953       67.36507       61.57512
O         69.72322       69.44779       60.42674
H         69.61544       70.51740       62.91880
H         72.17402       68.90738       62.67577
H         71.50858       68.47239       60.31445
H         68.89654       69.39472       60.97433
H         71.00967       66.76330       62.01981
H         69.39948       67.51277       62.34232
H         69.75243       66.79670       60.72681
N         73.19369       70.65976       60.90287
C         73.96394       71.79114       60.39138
C         74.03751       71.70095       58.87298
O         74.65616       70.78073       58.35338
C         75.38310       71.80170       61.04932
C         75.24959       72.08968       62.57101
C         76.32087       72.83027       60.38729
C         76.56928       72.01857       63.34420
H         73.53982       69.71100       60.68683
H         73.46746       72.75086       60.65533
H         75.84080       70.79789       60.90131
H         74.56727       71.34315       63.02872
H         74.80571       73.09965       62.72150
H         77.34411       72.76633       60.80579
H         76.43541       72.62936       59.30410
H         75.93853       73.85652       60.53266
H         77.28918       72.79031       63.00505
H         76.37377       72.20735       64.42095
H         77.02448       71.01192       63.23522
N         73.42195       72.63954       58.09889
C         73.51422       72.67888       56.64193
C         74.85242       73.26108       56.21078
O         75.64203       73.66574       57.05160
C         72.35660       73.52179       56.02623
C         70.98208       72.90353       56.30354
O         72.41038       74.86368       56.44547
H         72.85863       73.35467       58.56868
H         73.41303       71.64619       56.24057
H         72.44902       73.52553       54.92117
H         71.89106       74.95926       57.28450
H         70.19386       73.50750       55.80711
H         70.93725       71.86870       55.90420
H         70.78545       72.88586       57.39185
N         75.15064       73.36711       54.88621
C         76.35635       74.01461       54.37607
C         76.38988       75.47357       54.82212
O         77.43760       75.93894       55.24605
C         76.41496       73.88994       52.83353
C         77.72584       74.43898       52.26413
O         76.33217       72.53181       52.47376
H         74.47146       72.99339       54.20780
H         77.24887       73.48367       54.77848
H         75.57325       74.46693       52.37892
H         75.41375       72.36432       52.13562
H         77.73831       74.30621       51.16140
H         77.83996       75.51920       52.48818
H         78.59011       73.88568       52.69260
N         75.25041       76.22657       54.82149
C         75.17447       77.58823       55.35375
C         75.61139       77.62412       56.81133
O         76.50949       78.38382       57.14638
C         73.72403       78.13402       55.25839
C         73.27758       78.37303       53.80779
C         71.81184       78.83835       53.74367
C         71.32216       79.08163       52.30409
N         71.98982       80.22059       51.66967
H         74.38444       75.78665       54.47491
H         75.84046       78.26196       54.77006
H         73.65983       79.10926       55.79166
H         73.02582       77.42754       55.75930
H         73.37156       77.43784       53.21774
H         73.94770       79.14175       53.37124
H         71.66619       79.76372       54.34306
H         71.17719       78.03836       54.18543
H         70.22966       79.29027       52.33822
H         71.47320       78.16401       51.69327
H         71.82343       81.08933       52.22810
H         73.01489       80.05076       51.57099
H         71.59080       80.35694       50.71290
N         74.99039       76.84305       57.73730
C         75.27208       76.90341       59.17237
C         76.66416       76.38300       59.52683
O         77.04733       76.50092       60.68295
C         74.18853       76.11975       59.95541
C         72.78101       76.69612       59.69154
C         71.68632       75.88079       60.30469
O         70.69497       76.49434       60.96487
O         71.61271       74.68256       60.09989
H         74.25270       76.21415       57.39928
H         75.20927       77.96727       59.49305
H         74.39485       76.15195       61.04843
H         74.21868       75.06105       59.62280
H         72.56695       76.71062       58.61031
H         72.71843       77.74531       60.05287
N         77.47760       75.79318       58.60520
C         78.80630       75.31883       58.92486
H         79.43974       76.16512       59.26453
H         78.75815       74.54537       59.71848
H         79.27313       74.86977       58.02107
H         77.15600       75.66158       57.64237
Ca        68.97540       73.72158       60.62316
O         68.83730       71.62316       58.63458
H         69.78529       71.41561       58.83254
H         68.70175       71.32272       57.70251
O         68.78857       74.83730       57.79070
H         68.93003       75.37186       56.97042
H         69.25396       75.35090       58.49692

Ca 1.0



