%chk=holoCaM-CaMKII.loop3.water2.frame303.chk
%nprocshared=20
%mem=10GB
%nosave
#b3lyp/svp scf=(tight,noincore,xqc) Test 
#IOP(5/87=12) Density=Current Pop=(MK,readradii) iop(6/33=2) iop(6/42=6)

holoCaM-CaMKII.loop3.water2.frame303 

   0  1 
C         51.42243       18.74779       76.64312
C         51.11291       17.88729       77.83315
O         51.83110       17.95193       78.82051
H         52.44407       18.51651       76.27761
H         50.70594       18.56289       75.81380
H         51.36312       19.81904       76.92562
N         50.03633       17.05845       77.81117
C         49.68698       16.17187       78.91004
C         50.54018       14.92147       78.81014
O         50.55358       14.29056       77.76182
C         48.18591       15.86393       78.82934
C         47.61627       15.09040       79.98431
O         48.35979       14.63345       81.01239
O         46.41739       14.86800       79.98855
H         49.43417       17.05822       76.97246
H         49.83584       16.70212       79.87861
H         47.96843       15.32625       77.88519
H         47.64146       16.83178       78.79808
N         51.29403       14.51762       79.86622
C         52.21323       13.38240       79.82698
C         51.49929       12.10339       79.40616
O         51.96762       11.47002       78.47041
C         52.93085       13.25966       81.18826
C         54.10222       12.26703       81.20928
C         54.80966       12.32350       82.57519
C         56.01767       11.38113       82.63966
N         56.66323       11.45288       83.95195
H         51.22114       15.06483       80.73457
H         53.00394       13.60709       79.07550
H         52.19907       12.99529       81.97485
H         53.36521       14.25663       81.41988
H         54.83084       12.54744       80.41667
H         53.73369       11.23755       81.01373
H         54.08761       12.04579       83.37339
H         55.16496       13.36114       82.76298
H         56.75376       11.66464       81.85440
H         55.68429       10.33716       82.45174
H         57.00939       12.42348       84.13314
H         55.98788       11.17648       84.70151
H         57.47637       10.79590       83.97250
N         50.33160       11.70005       79.99398
C         49.59553       10.50650       79.56170
C         48.26659       10.83400       78.87088
O         47.56866        9.89847       78.50295
C         49.42941        9.50372       80.73016
C         48.56524        9.95030       81.87423
O         48.36143        9.11953       82.91348
O         48.03481       11.04314       81.87368
H         49.93449       12.28209       80.74616
H         50.18337        9.95601       78.79570
H         50.43536        9.25767       81.13164
H         48.98404        8.56706       80.32993
N         47.88256       12.11417       78.57747
C         46.68910       12.41578       77.78984
C         45.37602       12.11580       78.48574
O         44.35630       12.12231       77.81067
H         48.49941       12.89438       78.82796
H         46.74607       11.82386       76.85015
H         46.67157       13.48430       77.49680
N         45.31082       11.84179       79.81836
C         44.09036       11.39864       80.48261
C         42.95161       12.40612       80.38491
O         41.84146       12.02057       80.04527
C         44.38991       10.93508       81.94145
C         44.25303       11.92237       83.12697
N         42.84007       12.13409       83.42244
O         44.85873       13.17340       82.96791
H         46.17599       11.88316       80.36998
H         43.78053       10.46538       79.95720
H         45.37962       10.43371       81.96686
H         43.66820       10.12088       82.17734
H         42.46506       11.26669       83.86782
H         42.74868       12.90105       84.12127
N         43.15893       13.71713       80.68665
C         42.08750       14.69829       80.73833
C         42.62220       16.03340       81.20444
O         42.47062       17.02801       80.51156
H         44.11588       14.02009       80.90932
H         41.32956       14.36180       81.47998
H         41.59856       14.79178       79.74455
N         43.27551       16.10055       82.39622
C         43.85427       17.31192       82.97097
C         45.36770       17.19316       83.07298
O         45.91752       16.13767       82.80171
C         43.17279       17.62903       84.33363
C         42.76340       16.40032       85.13591
C         43.70070       15.47485       85.62718
C         41.39332       16.15810       85.35745
C         43.27098       14.32640       86.31052
C         40.96768       15.01470       86.03434
C         41.90404       14.08948       86.50837
O         41.50059       12.96831       87.14116
H         43.38246       15.22482       82.92615
H         43.69320       18.18195       82.29746
H         42.24029       18.17824       84.08319
H         43.78748       18.32584       84.94309
H         44.75590       15.63072       85.46353
H         40.64408       16.84794       84.99015
H         43.99721       13.60758       86.66956
H         39.90740       14.84545       86.17865
H         40.56313       12.76030       87.27065
N         46.10745       18.29571       83.40266
C         47.56718       18.31196       83.46531
C         47.96647       18.66746       84.88441
O         47.50526       19.68058       85.38981
C         48.18222       19.34672       82.46337
C         47.59592       19.17804       81.03930
C         49.72161       19.19242       82.44457
C         48.17319       20.15530       80.00627
H         45.61263       19.17802       83.60186
H         47.97713       17.31415       83.19265
H         47.93125       20.37664       82.80313
H         46.50124       19.36338       81.08563
H         47.76097       18.14275       80.68440
H         50.00900       18.18778       82.06364
H         50.20483       19.96375       81.81236
H         50.14670       19.31934       83.45754
H         47.64238       20.03200       79.03917
H         48.04992       21.20550       80.34755
H         49.24736       19.95432       79.81401
N         48.86564       17.90550       85.56652
C         49.31845       18.23086       86.91440
C         50.69062       18.86927       86.85412
O         51.23193       19.02691       85.77380
C         49.28375       16.97657       87.80131
O         50.16946       15.99783       87.32482
H         49.31272       17.12007       85.08021
H         48.64784       18.98827       87.37383
H         48.24154       16.58497       87.85608
H         49.57080       17.22561       88.84332
H         49.62695       15.31723       86.84855
N         51.28795       19.33082       87.98726
C         52.54390       20.06982       87.95851
C         53.67566       19.24155       87.38812
O         54.27044       19.66553       86.40522
C         52.90601       20.56532       89.36162
H         50.80388       19.20328       88.88774
H         52.40436       20.97414       87.32301
H         53.84101       21.16436       89.32284
H         52.09237       21.21479       89.74961
H         53.04757       19.71588       90.06201
N         54.04681       18.05947       87.95801
C         55.18658       17.28985       87.47155
C         55.01743       16.83860       86.03245
O         56.02594       16.62224       85.37457
C         55.45906       16.07911       88.36723
H         53.52724       17.72266       88.78374
H         56.07953       17.95331       87.52217
H         55.63673       16.41515       89.41120
H         54.59213       15.38423       88.35538
H         56.36324       15.53556       88.01805
N         53.78524       16.65117       85.47585
C         53.62353       16.27178       84.07761
C         54.09587       17.40723       83.18775
O         55.02471       17.20804       82.41724
C         52.16338       15.88449       83.75631
C         51.74896       14.60206       84.50195
C         50.39921       14.10252       84.06004
O         49.30798       14.87569       84.18427
O         50.28258       12.97997       83.59537
H         52.94585       16.77597       86.06069
H         54.24414       15.37134       83.86891
H         52.09987       15.68875       82.67182
H         51.46506       16.71602       83.99067
H         51.73354       14.78881       85.59376
H         52.49876       13.80499       84.30559
N         53.51128       18.63523       83.26376
C         53.93142       19.78194       82.48533
H         54.78374       19.55019       81.81352
H         53.08045       20.14224       81.87057
H         54.24204       20.59496       83.17583
H         52.73404       18.77725       83.91814
Ca        47.03934       13.45766       82.41300
O         47.04356       14.32317       85.97656
H         47.11294       13.85752       86.84733
H         47.01541       15.28456       86.20958
O         47.00261       11.52037       85.03561
H         46.72394       10.88966       84.32618
H         46.67889       11.10692       85.87473

Ca 1.0



