%chk=holoCaM.loop2.water2.frame176.chk
%nprocshared=20
%mem=10GB
%nosave
#b3lyp/svp scf=(tight,noincore,xqc) Test 
#IOP(5/87=12) Density=Current Pop=(MK,readradii) iop(6/33=2) iop(6/42=6)

holoCaM.loop2.water2.frame176 

   -2  1 
C         16.91279      -26.57985      102.78822
C         17.82740      -26.37555      103.96217
O         17.78256      -25.32960      104.58458
H         16.25222      -25.69949      102.63756
H         17.50623      -26.75617      101.86831
H         16.26861      -27.46710      102.97712
N         18.65078      -27.38023      104.35459
C         19.44194      -27.34984      105.58131
C         20.71410      -26.51557      105.46664
O         21.50669      -26.76402      104.56887
C         19.79443      -28.79680      105.96144
C         20.54502      -28.84882      107.25062
O         21.63862      -29.38708      107.30137
O         20.02096      -28.27686      108.34939
H         18.60424      -28.26084      103.81710
H         18.80425      -26.96354      106.40817
H         20.38816      -29.28083      105.15513
H         18.84849      -29.36624      106.09002
N         21.00681      -25.56728      106.41125
C         22.24804      -24.79238      106.43583
C         23.08018      -24.99908      107.71451
O         24.15751      -24.42303      107.78307
C         21.89618      -23.30555      106.29781
H         20.31970      -25.39095      107.15676
H         22.89311      -25.07584      105.57630
H         21.26853      -22.97590      107.15521
H         22.81479      -22.68087      106.27085
H         21.32986      -23.13161      105.35837
N         22.64689      -25.74390      108.77920
C         23.35226      -25.78786      110.07294
C         23.33601      -27.16184      110.76710
O         23.93297      -27.26576      111.83043
C         22.75834      -24.70783      111.01214
C         21.26182      -24.72584      110.97027
O         20.59554      -25.87508      111.14875
O         20.65595      -23.73846      110.58337
H         21.70213      -26.14524      108.73585
H         24.42797      -25.53848      109.93817
H         23.08711      -23.70643      110.65565
H         23.13417      -24.83057      112.05015
N         22.71107      -28.25707      110.24854
C         22.73308      -29.57910      110.87272
C         21.96649      -29.71837      112.18744
O         21.99550      -30.80719      112.74313
H         22.25758      -28.17987      109.33752
H         23.79226      -29.87643      111.03375
H         22.28472      -30.31071      110.16552
N         21.26701      -28.69241      112.75294
C         20.57211      -28.78316      114.04261
C         19.32393      -29.68646      114.05930
O         18.69663      -29.77315      115.10647
C         20.22336      -27.36497      114.56194
C         19.20527      -26.59595      113.75999
N         18.82551      -25.36814      114.17470
O         18.71751      -27.06532      112.74498
H         21.29170      -27.78385      112.28777
H         21.29459      -29.18766      114.78569
H         21.15708      -26.76159      114.60455
H         19.83480      -27.45461      115.59905
H         19.22660      -24.94989      115.02619
H         18.12180      -24.83805      113.64901
N         18.91555      -30.41117      112.97713
C         17.78148      -31.33101      112.99790
C         16.40524      -30.68614      112.87627
O         15.43720      -31.42939      112.82898
H         19.48509      -30.39905      112.12585
H         17.83896      -31.97720      113.90134
H         17.87083      -31.99928      112.11434
N         16.23118      -29.33665      112.78960
C         14.93416      -28.68101      112.59185
C         14.96455      -27.80601      111.33913
O         15.99264      -27.71446      110.68718
C         14.59240      -27.82066      113.83946
C         14.29481      -28.69903      115.05527
O         15.64640      -26.94564      114.15268
H         17.05270      -28.73259      112.86084
H         14.12102      -29.42574      112.44625
H         13.66060      -27.23466      113.67457
H         15.64891      -26.23264      113.46271
H         14.03185      -28.05838      115.92433
H         13.42653      -29.35987      114.84076
H         15.17062      -29.32499      115.32306
N         13.85497      -27.09112      110.97960
C         13.82703      -26.12368      109.88658
C         13.75192      -24.73267      110.49869
O         12.92750      -24.48825      111.36664
C         12.67212      -26.41525      108.87832
C         12.93876      -27.77394      108.17189
C         12.56687      -25.27813      107.83794
C         11.91598      -28.14854      107.09409
H         13.00193      -27.17716      111.55020
H         14.76648      -26.16939      109.30394
H         11.70395      -26.45730      109.42451
H         12.94618      -28.58092      108.93499
H         13.93805      -27.74977      107.68425
H         12.37860      -24.30205      108.32974
H         13.49837      -25.21461      107.24133
H         11.70930      -25.43119      107.15324
H         11.94386      -27.43329      106.24542
H         12.17065      -29.14555      106.67652
H         10.89173      -28.18408      107.51796
N         14.60224      -23.76458      110.05116
C         14.70412      -22.41937      110.60060
C         14.06582      -21.42331      109.65474
O         13.53673      -21.81985      108.63216
C         16.19357      -22.07673      110.82155
C         16.85110      -23.00665      111.79600
O         16.91280      -24.20307      111.56337
O         17.39690      -22.51602      112.92470
H         15.20737      -23.97948      109.25273
H         14.15516      -22.34569      111.56480
H         16.29533      -21.04370      111.21274
H         16.73880      -22.12964      109.85318
N         14.02484      -20.09975      109.97723
C         13.31289      -19.11600      109.17306
C         13.86309      -18.95114      107.75899
O         13.06260      -19.10903      106.84428
C         13.21743      -17.76676      109.91564
C         12.42427      -16.74503      109.12833
C         11.11359      -17.02525      108.69275
C         12.99480      -15.50003      108.81488
C         10.40092      -16.08598      107.94436
C         12.27106      -14.55743      108.07805
C         10.97798      -14.85231      107.63840
H         14.44758      -19.79493      110.86563
H         12.26734      -19.48219      109.08354
H         14.23222      -17.38111      110.14458
H         12.70188      -17.94004      110.88528
H         10.64091      -17.97221      108.91612
H         13.99732      -15.25603      109.14330
H          9.40046      -16.31675      107.60125
H         12.71455      -13.59861      107.84483
H         10.42215      -14.12512      107.06142
N         15.15939      -18.62582      107.44700
C         15.59893      -18.40644      106.07492
C         15.56101      -19.68052      105.24984
O         15.64107      -19.59609      104.03328
C         17.01315      -17.84293      106.23050
C         17.49034      -18.54743      107.48564
C         16.25281      -18.47175      108.38518
H         14.95224      -17.65047      105.57536
H         17.66549      -17.93644      105.33509
H         16.93051      -16.76392      106.49239
H         17.66749      -19.61490      107.21714
H         18.41913      -18.14416      107.94149
H         16.31862      -19.29247      109.12814
H         16.16299      -17.48353      108.88230
N         15.44067      -20.89679      105.84555
C         15.28752      -22.13544      105.10149
C         13.89480      -22.16750      104.51078
O         13.74923      -22.33228      103.30803
C         15.50335      -23.34338      106.02752
C         16.90381      -23.30323      106.66057
C         17.17612      -24.47340      107.54394
O         16.39836      -25.40594      107.64381
O         18.28550      -24.44558      108.28504
H         15.44683      -20.94759      106.87222
H         16.06379      -22.20763      104.30601
H         15.38541      -24.27807      105.43652
H         14.75107      -23.33873      106.84229
H         17.00026      -22.40268      107.29909
H         17.69588      -23.24377      105.88614
N         12.81615      -21.97319      105.31958
C         11.45633      -21.94778      104.83765
H         10.76777      -21.72391      105.68227
H         11.34114      -21.15206      104.07227
H         11.18759      -22.93474      104.40972
H         12.96422      -21.80570      106.32128
Ca        18.72939      -25.85307      109.95120
O         16.76125      -28.24395      107.79251
H         16.40980      -27.93063      106.92186
H         16.81138      -29.22733      107.69776
O         18.20884      -29.50690      110.09330
H         19.12537      -29.86177      109.98019
H         17.63426      -30.31166      110.07372

Ca 1.0



