%chk=holoCaM.loop2.water2.frame64.chk
%nprocshared=20
%mem=10GB
%nosave
#b3lyp/svp scf=(tight,noincore,xqc) Test 
#IOP(5/87=12) Density=Current Pop=(MK,readradii) iop(6/33=2) iop(6/42=6)

holoCaM.loop2.water2.frame64 

   -2  1 
C         88.08933       15.44181      109.35512
C         88.04751       16.89456      109.73539
O         86.97444       17.47223      109.71280
H         89.10961       15.02004      109.47217
H         87.40564       14.87393      110.02370
H         87.75903       15.30699      108.30514
N         89.17864       17.54583      110.12436
C         89.19148       18.90398      110.65771
C         90.02747       19.83610      109.80137
O         91.19725       19.56050      109.57580
C         89.72107       18.82889      112.09986
C         89.98989       20.15622      112.76063
O         91.08789       20.35417      113.25562
O         89.07690       21.14488      112.81556
H         90.07318       17.03225      110.10376
H         88.16290       19.30822      110.70434
H         90.67009       18.24861      112.11592
H         88.98260       18.26346      112.70092
N         89.47967       21.00025      109.33590
C         90.19650       21.98749      108.54424
C         90.33748       23.34162      109.25122
O         90.95877       24.21128      108.65557
C         89.43339       22.18109      107.22480
H         88.49397       21.20505      109.54183
H         91.22108       21.62507      108.31397
H         88.40978       22.57050      107.42776
H         89.95604       22.90069      106.56039
H         89.33563       21.21316      106.68888
N         89.76784       23.62725      110.46867
C         89.78374       24.97726      111.05194
C         90.22255       25.06009      112.52304
O         90.29664       26.17127      113.03007
C         88.39831       25.62902      110.83690
C         87.24993       24.98252      111.56560
O         87.44350       23.95141      112.40306
O         86.11942       25.41091      111.40249
H         89.20793       22.90671      110.93435
H         90.50016       25.61336      110.48831
H         88.17671       25.59624      109.74738
H         88.44107       26.69617      111.14262
N         90.54103       23.96312      113.27032
C         91.01749       24.02761      114.65188
C         90.03132       24.54231      115.69923
O         90.43894       24.63405      116.84891
H         90.52256       23.03988      112.82758
H         91.92436       24.67055      114.67894
H         91.32143       23.00683      114.97082
N         88.75012       24.91384      115.41030
C         87.84767       25.50489      116.40620
C         87.47530       24.58440      117.57343
O         86.95769       25.09074      118.55927
C         86.57848       26.07026      115.72445
C         85.74376       25.05758      114.97083
N         84.63947       25.46455      114.30739
O         86.06293       23.87943      114.93407
H         88.42974       24.84739      114.43967
H         88.38637       26.37301      116.84783
H         86.89942       26.84349      114.99335
H         85.93823       26.56555      116.48623
H         84.35696       26.45486      114.31017
H         84.07112       24.78889      113.78055
N         87.67850       23.23887      117.53291
C         87.41287       22.33431      118.64516
C         86.23608       21.40407      118.41375
O         86.04365       20.51788      119.23448
H         88.04880       22.82927      116.67465
H         87.20633       22.88728      119.58647
H         88.33221       21.73260      118.81140
N         85.36086       21.58169      117.38200
C         84.15640       20.77455      117.19027
C         84.11029       20.17826      115.78912
O         84.97604       20.46507      114.97510
C         82.90498       21.66812      117.43169
C         82.83502       22.16240      118.87920
O         82.91626       22.78298      116.57489
H         85.50465       22.36865      116.73938
H         84.12371       19.92829      117.91149
H         81.96883       21.08518      117.27503
H         82.57376       22.47919      115.69429
H         81.92124       22.77846      119.02268
H         82.78561       21.29902      119.57688
H         83.71877       22.78426      119.13333
N         83.06211       19.38197      115.43195
C         82.80636       18.90599      114.07852
C         81.68712       19.75012      113.50956
O         80.63551       19.87949      114.12226
C         82.51600       17.36208      114.05152
C         83.87312       16.60954      113.96501
C         81.60243       16.95302      112.87362
C         83.78084       15.08361      113.90516
H         82.33386       19.18734      116.13624
H         83.67719       19.09429      113.41604
H         81.95942       17.07513      114.97060
H         84.49987       16.88952      114.83812
H         84.39721       16.92688      113.03583
H         82.07022       17.19528      111.90675
H         81.36511       15.87161      112.89927
H         80.61914       17.46377      112.93882
H         84.80727       14.66195      113.84822
H         83.27326       14.68603      114.80616
H         83.25072       14.74371      112.99103
N         81.85978       20.32083      112.28508
C         80.86496       21.13071      111.60889
C         80.14185       20.26835      110.59499
O         80.43135       19.08458      110.50496
C         81.55562       22.33970      110.93898
C         82.30608       23.18948      111.92758
O         83.24368       22.72350      112.55626
O         81.96591       24.48058      112.10122
H         82.71651       20.10459      111.75597
H         80.10263       21.49750      112.33159
H         80.79534       22.97189      110.43502
H         82.27444       21.98422      110.16772
N         79.13559       20.77617      109.83713
C         78.34436       19.95455      108.93083
C         79.15605       19.33485      107.78678
O         79.05114       18.12597      107.63247
C         77.12129       20.73487      108.41655
C         76.18479       19.84678      107.62860
C         75.62394       18.69353      108.21477
C         75.86003       20.16344      106.30045
C         74.76941       17.87032      107.47918
C         74.99551       19.34096      105.57137
C         74.45412       18.19395      106.15857
H         78.87973       21.76830      109.96085
H         77.93444       19.12189      109.54283
H         77.45178       21.60601      107.81459
H         76.55824       21.12699      109.29181
H         75.84685       18.42165      109.23836
H         76.27283       21.04696      105.83033
H         74.35137       16.98178      107.93533
H         74.74613       19.59259      104.54949
H         73.78877       17.55638      105.59178
N         79.99589       20.03854      106.95399
C         80.74597       19.42609      105.85381
C         81.87809       18.51355      106.31726
O         82.59940       18.00308      105.47080
C         81.27018       20.63349      105.07109
C         81.51336       21.63814      106.17216
C         80.26686       21.46033      107.03804
H         80.08298       18.83835      105.18165
H         82.13059       20.42849      104.39724
H         80.43576       21.03632      104.45331
H         82.40042       21.28683      106.74898
H         81.69922       22.68071      105.83896
H         80.52121       21.81165      108.05640
H         79.39604       22.01439      106.62911
N         82.06414       18.22343      107.63041
C         83.07873       17.32703      108.14507
C         82.43006       16.00941      108.52176
O         82.92793       14.97047      108.11278
C         83.73835       17.96395      109.36905
C         84.31437       19.35568      109.07346
C         85.01221       19.91560      110.27139
O         85.21359       19.23099      111.26087
O         85.45817       21.17511      110.26231
H         81.44415       18.63532      108.32915
H         83.87358       17.13062      107.38991
H         84.52422       17.27407      109.73921
H         82.98816       18.09547      110.17017
H         83.48766       20.04314      108.79659
H         85.04280       19.31298      108.23466
N         81.28019       15.98273      109.25660
C         80.57368       14.77009      109.60702
H         79.57541       14.77959      109.11895
H         81.11507       13.85687      109.28641
H         80.43156       14.73478      110.70661
H         80.84616       16.86391      109.55440
Ca        87.21443       21.39492      111.60120
O         86.87383       18.79293      113.90302
H         86.17260       18.32301      113.39375
H         87.15032       18.14483      114.59733
O         88.12009       20.67368      115.47849
H         88.96522       20.45944      115.94538
H         88.30680       21.52308      115.00752

Ca 1.0



