%chk=holoCaM-CaMKII.loop2.water2.frame474.chk
%nprocshared=20
%mem=10GB
%nosave
#b3lyp/svp scf=(tight,noincore,xqc) Test 
#IOP(5/87=12) Density=Current Pop=(MK,readradii) iop(6/33=2) iop(6/42=6)

holoCaM-CaMKII.loop2.water2.frame474 

   -2  1 
C         63.52138       60.33909       77.48039
C         63.31106       61.42464       78.49511
O         63.78463       61.30421       79.61500
H         64.06457       60.75566       76.60446
H         64.12326       59.50749       77.90426
H         62.54132       59.94374       77.14207
N         62.62470       62.54511       78.14673
C         62.45795       63.68918       79.03281
C         61.59860       63.36969       80.24784
O         60.46342       62.94435       80.08599
C         61.82963       64.86474       78.26173
C         61.79046       66.09072       79.12248
O         62.93441       66.56673       79.64523
O         60.73105       66.64224       79.37106
H         62.26349       62.60774       77.18149
H         63.47083       64.02037       79.35372
H         60.80770       64.59885       77.91227
H         62.45041       65.09741       77.37155
N         62.06891       63.64042       81.49898
C         61.29111       63.49336       82.72390
C         61.10064       64.83014       83.44704
O         60.46868       64.83205       84.49457
C         62.02289       62.51464       83.64823
H         63.02507       64.00519       81.58995
H         60.28256       63.08290       82.50177
H         61.44854       62.35420       84.58546
H         62.15019       61.53486       83.14198
H         63.02844       62.91180       83.91166
N         61.64152       65.99444       82.97743
C         61.58966       67.26825       83.68802
C         60.97430       68.37795       82.84133
O         59.98685       68.95360       83.27879
C         62.99368       67.64104       84.22989
C         64.18653       67.15373       83.43657
O         64.99825       66.42174       83.98092
O         64.40153       67.50106       82.15901
H         62.17487       65.98518       82.10057
H         60.94213       67.19904       84.59224
H         63.09305       67.15026       85.22362
H         63.05334       68.73589       84.41515
N         61.50082       68.75112       81.64254
C         60.97944       69.84283       80.83061
C         62.03032       70.89480       80.51781
O         61.70785       71.82292       79.78943
H         62.30258       68.23499       81.27285
H         60.11710       70.34533       81.32070
H         60.62167       69.41942       79.86851
N         63.30170       70.83298       81.01858
C         64.33108       71.83271       80.72563
C         64.83415       71.81091       79.27097
O         65.69880       72.61528       78.95180
C         65.49511       71.71456       81.74187
C         66.28884       70.43708       81.69603
N         67.28930       70.24146       82.58567
O         66.03632       69.57835       80.86873
H         63.53813       70.08246       81.68161
H         63.89408       72.83729       80.91881
H         65.06483       71.80840       82.76355
H         66.19895       72.56062       81.59193
H         67.50956       70.95761       83.29317
H         67.84255       69.37444       82.57685
N         64.31901       70.96840       78.32474
C         64.68999       71.01058       76.91461
C         66.02923       70.38241       76.56701
O         66.35835       70.38498       75.38938
H         63.55331       70.33315       78.57435
H         64.64854       72.06243       76.55480
H         63.93023       70.43881       76.33880
N         66.84686       69.81651       77.50074
C         68.13538       69.20114       77.18195
C         68.21170       67.76975       77.68611
O         67.72456       67.48315       78.76969
C         69.28622       70.01880       77.80589
C         69.38811       71.40259       77.16265
O         69.10648       70.16789       79.19180
H         66.56548       69.83936       78.48713
H         68.31987       69.18523       76.08432
H         70.25712       69.50795       77.59689
H         69.44575       69.34002       79.62092
H         68.45889       71.98695       77.32809
H         70.24355       71.95792       77.60057
H         69.56097       71.30225       76.06872
N         68.91411       66.83641       76.98000
C         69.15866       65.48214       77.47246
C         70.01498       65.56876       78.73756
O         71.09182       66.14437       78.66783
C         69.91552       64.60151       76.41230
C         69.27854       64.57185       74.99368
C         70.09154       63.15750       76.92939
C         67.84474       64.05370       74.92594
H         69.32671       67.12367       76.08188
H         68.18333       64.99099       77.68151
H         70.93407       65.02627       76.26678
H         69.91097       63.93157       74.33908
H         69.29526       65.58382       74.54286
H         70.64478       62.54162       76.18903
H         70.68216       63.14447       77.86319
H         69.11149       62.67682       77.13381
H         67.51001       64.05199       73.86674
H         67.76661       63.01639       75.30974
H         67.17519       64.72524       75.49394
N         69.63769       64.95913       79.90014
C         70.51490       64.87717       81.07403
C         71.15528       63.50857       81.12575
O         70.83614       62.67959       80.29927
C         69.75422       65.20886       82.37115
C         69.46175       66.67734       82.42219
O         68.68391       67.25659       81.49167
O         70.01007       67.37389       83.26202
H         68.75958       64.42477       79.91224
H         71.37257       65.57765       80.97331
H         70.40207       64.96886       83.24199
H         68.82539       64.60323       82.46555
N         72.15244       63.22963       82.01645
C         72.89681       61.97520       81.95621
C         71.99851       60.76561       82.19474
O         72.01462       59.88828       81.33872
C         74.12912       61.98446       82.89148
C         74.99069       60.76394       82.65986
C         75.64125       60.58034       81.42526
C         75.14958       59.79777       83.66751
C         76.43123       59.44990       81.20336
C         75.93773       58.66494       83.43867
C         76.57779       58.49144       82.20828
H         72.44143       63.95321       82.68963
H         73.31211       61.90221       80.92631
H         73.82717       62.03950       83.94859
H         74.74843       62.88603       82.69315
H         75.54170       61.31352       80.63462
H         74.65644       59.91450       84.62439
H         76.92887       59.31763       80.25115
H         76.05127       57.91987       84.21503
H         77.18776       57.61490       82.03297
N         71.17096       60.62429       83.28109
C         70.26979       59.49218       83.47813
C         69.42925       59.18918       82.25144
O         69.32171       58.04088       81.85048
C         69.34488       59.95969       84.61383
C         70.26624       60.82966       85.42688
C         70.99370       61.60814       84.33741
H         70.86277       58.60392       83.79279
H         68.55830       60.64431       84.21954
H         68.84173       59.13787       85.16590
H         69.77199       61.46380       86.19344
H         70.99972       60.15932       85.93094
H         70.37948       62.44646       83.94171
H         71.92351       61.99187       84.78249
N         68.81896       60.21845       81.60481
C         67.94657       60.07742       80.44520
C         68.68415       59.39966       79.30152
O         68.20180       58.39269       78.80230
C         67.40474       61.46750       80.02613
C         66.58806       62.12355       81.16872
C         66.07203       63.49464       80.84939
O         65.41711       64.17995       81.80270
O         66.26160       64.01197       79.76239
H         69.00860       61.16319       81.96446
H         67.06668       59.45365       80.71994
H         66.74900       61.35411       79.13498
H         68.25498       62.12595       79.75022
H         67.20777       62.24972       82.07633
H         65.72947       61.47140       81.43332
N         69.88349       59.87525       78.86856
C         70.67474       59.26881       77.81950
H         71.64858       58.94095       78.24292
H         70.17335       58.39081       77.36410
H         70.87017       60.02087       77.02708
H         70.28332       60.69493       79.32655
Ca        66.45370       66.95012       81.39164
O         64.58042       67.86965       77.88907
H         64.75260       67.34813       77.06755
H         63.64365       68.17284       77.78904
O         65.10202       64.75105       77.14281
H         65.84559       64.11676       77.29153
H         64.61539       64.37725       76.36664

Ca 1.0



