%chk=holoCaM.loop3.water2.frame482.chk
%nprocshared=20
%mem=10GB
%nosave
#b3lyp/svp scf=(tight,noincore,xqc) Test 
#IOP(5/87=12) Density=Current Pop=(MK,readradii) iop(6/33=2) iop(6/42=6)

holoCaM.loop3.water2.frame482 

   0  1 
C         85.56928       49.75438       63.19234
C         86.31107       48.51415       63.58655
O         87.50589       48.43463       63.33886
H         84.49233       49.68161       63.45553
H         86.00672       50.63422       63.70417
H         85.64667       49.88608       62.09193
N         85.64636       47.47908       64.16621
C         86.25899       46.19605       64.45868
C         85.64601       45.22643       63.47931
O         84.43934       45.02416       63.52143
C         86.02037       45.84086       65.94254
C         86.62490       44.54415       66.40007
O         87.20576       43.79949       65.62862
O         86.54016       44.21298       67.69934
H         84.63169       47.57198       64.33412
H         87.35835       46.23748       64.28883
H         84.93084       45.81169       66.15851
H         86.47039       46.64507       66.56094
N         86.41167       44.65491       62.50643
C         85.84364       43.87714       61.41308
C         86.07764       42.39060       61.59183
O         85.59023       41.63066       60.76769
C         86.35071       44.41220       60.05395
C         85.92634       45.87757       59.83764
C         86.27406       46.38138       58.42924
C         85.75052       47.81248       58.22257
N         86.00459       48.28092       56.86024
H         87.43306       44.80821       62.51160
H         84.73563       43.97665       61.40749
H         85.89785       43.79761       59.24548
H         87.45751       44.32021       59.98541
H         86.41061       46.53071       60.59707
H         84.82366       45.94454       59.96366
H         85.79279       45.71573       57.67961
H         87.37514       46.35596       58.27447
H         86.23976       48.49951       58.94851
H         84.65303       47.83305       58.40764
H         85.52637       47.65611       56.17069
H         85.62103       49.24839       56.75520
H         87.03212       48.29979       56.66851
N         86.71166       41.89534       62.69481
C         86.75183       40.47486       63.02238
C         85.92166       40.17614       64.27299
O         85.77966       39.00812       64.60850
C         88.21177       40.00735       63.15103
C         88.97202       40.76196       64.20650
O         88.58780       40.70198       65.49347
O         89.93983       41.43773       63.89774
H         87.12342       42.54418       63.37758
H         86.28547       39.87954       62.20797
H         88.70896       40.15864       62.16747
H         88.24226       38.92174       63.38497
N         85.31316       41.16643       64.99152
C         84.42683       40.93055       66.11511
C         85.07822       40.19777       67.26116
O         84.54257       39.18401       67.68552
H         85.43036       42.15187       64.72250
H         83.53111       40.37223       65.76697
H         84.07821       41.91506       66.50092
N         86.20449       40.68642       67.84971
C         86.77056       40.13478       69.07885
C         86.73619       41.17183       70.20253
O         87.26190       40.89782       71.27135
C         88.18134       39.54717       68.83733
C         89.27481       40.50471       68.43384
N         90.53113       40.03619       68.25291
O         89.04683       41.69160       68.26938
H         86.64510       41.52366       67.44095
H         86.16417       39.27322       69.43572
H         88.10187       38.76142       68.05421
H         88.50776       39.05028       69.77734
H         90.74362       39.03624       68.38731
H         91.29501       40.67231       67.98404
N         86.06396       42.35393       70.05667
C         85.92668       43.35508       71.10000
C         87.09453       44.31747       71.21544
O         86.97418       45.23753       72.01182
H         85.51314       42.51988       69.20465
H         85.69348       42.87118       72.07342
H         85.05195       43.98991       70.83748
N         88.23750       44.20261       70.47284
C         89.33884       45.16260       70.55261
C         89.67508       45.69809       69.13545
O         90.13383       44.60848       68.38099
C         90.60174       44.52775       71.19525
C         90.35708       43.94709       72.56573
C         89.64444       42.74629       72.70463
C         90.86512       44.57651       73.71379
C         89.43018       42.18751       73.96562
C         90.64714       44.01932       74.97806
C         89.92828       42.82135       75.10724
O         89.71628       42.26861       76.31821
H         88.34410       43.40292       69.83947
H         89.04958       46.02565       71.19123
H         91.36814       45.32958       71.27258
H         91.03154       43.72558       70.55801
H         89.27108       42.23446       71.83173
H         91.42433       45.50021       73.63278
H         88.88193       41.25775       74.05283
H         91.03990       44.51759       75.85500
H         90.04907       42.67143       77.13262
N         90.71649       46.74597       69.21919
C         91.19241       47.32381       67.94132
C         92.67591       47.62515       68.09683
O         93.03953       48.50275       68.86766
C         90.37677       48.59377       67.49871
C         88.90918       48.21710       67.16096
C         91.03680       49.29283       66.28999
C         88.02741       49.40360       66.75668
H         90.44039       47.50413       69.88597
H         91.12443       46.57389       67.13975
H         90.38353       49.32403       68.33799
H         88.43651       47.75394       68.04964
H         88.89605       47.48146       66.32824
H         90.52217       50.24095       66.03805
H         92.07999       49.58744       66.51526
H         91.02183       48.63101       65.40441
H         88.00902       50.16516       67.56339
H         88.37340       49.86971       65.81181
H         86.99090       49.05037       66.57641
N         93.59295       46.89807       67.39221
C         95.03644       47.11791       67.46167
C         95.44194       48.40279       66.75062
O         94.59176       49.08333       66.20291
C         95.76947       45.92097       66.81917
O         95.46488       45.82365       65.45094
H         93.24777       46.12163       66.80762
H         95.34624       47.15683       68.52912
H         95.48651       44.98986       67.36569
H         96.86940       46.01758       66.92740
H         94.99490       44.96165       65.30883
N         96.75218       48.77263       66.69093
C         97.23779       49.91550       65.92064
C         96.97198       49.72611       64.43393
O         96.43868       50.62965       63.80629
C         98.74565       50.09142       66.13710
H         97.44250       48.19805       67.19769
H         96.74951       50.84993       66.27875
H         98.95369       50.26438       67.21457
H         99.30557       49.19128       65.80494
H         99.11275       50.97265       65.56757
N         97.31776       48.56043       63.81248
C         97.13879       48.30265       62.38279
C         95.70971       48.53950       61.93821
O         95.49392       49.31507       61.01736
C         97.54107       46.85742       62.05722
H         97.72412       47.81148       64.39499
H         97.80505       48.98112       61.80534
H         96.90975       46.13473       62.61920
H         97.42387       46.65988       60.97021
H         98.60258       46.68523       62.33343
N         94.68062       47.92357       62.57643
C         93.27412       48.13781       62.24404
C         92.93680       49.61829       62.31115
O         92.37729       50.14101       61.35714
C         92.38241       47.33125       63.20353
C         92.53069       45.81374       62.99033
C         91.73123       45.09294       64.02512
O         90.40027       45.26820       64.10751
O         92.29706       44.39908       64.85493
H         94.91717       47.31097       63.37031
H         93.06075       47.78344       61.21084
H         91.31486       47.59970       63.03860
H         92.65964       47.59191       64.24935
H         93.59428       45.51211       63.09368
H         92.18294       45.52552       61.97572
N         93.30864       50.37174       63.37920
C         93.07844       51.79805       63.44214
H         91.98939       52.00852       63.44998
H         93.53525       52.21398       64.36589
H         93.55031       52.29639       62.56732
H         93.81685       49.92836       64.15021
Ca        89.67820       44.92977       66.18948
O         92.68521       43.16132       68.14336
H         92.91349       43.81699       68.84900
H         93.55903       42.80920       67.83993
O         92.41545       41.49065       65.50490
H         92.96826       40.89681       66.07159
H         92.59471       41.18790       64.57960

Ca 1.0



