%chk=holoCaM-CaMKII.loop4.water1.frame326.chk
%nprocshared=20
%mem=10GB
%nosave
#b3lyp/svp scf=(tight,noincore,xqc) Test 
#IOP(5/87=12) Density=Current Pop=(MK,readradii) iop(6/33=2) iop(6/42=6)

holoCaM-CaMKII.loop4.water1.frame326 

   -3  1 
C         38.52501       54.02905       85.41537
C         39.12186       55.00310       86.38893
O         39.91032       55.84367       85.98184
H         37.95379       54.58732       84.64316
H         39.32921       53.44299       84.92750
H         37.82638       53.32660       85.91893
N         38.74754       54.97988       87.69509
C         39.19587       55.97064       88.66140
C         40.65108       55.78406       89.06118
O         41.03944       54.67235       89.39161
C         38.28105       55.93882       89.88976
C         38.56083       57.10955       90.77078
O         38.67502       56.96377       91.97231
O         38.62448       58.34050       90.23343
H         38.03850       54.28833       87.98835
H         39.04461       56.97452       88.20641
H         38.34618       54.97953       90.45054
H         37.23494       56.06129       89.53222
N         41.48811       56.86388       89.12868
C         42.89751       56.79035       89.51418
C         43.13926       57.43033       90.89058
O         44.23620       57.27090       91.40592
C         43.77199       57.46306       88.39742
C         43.49311       56.80537       87.01780
C         45.28321       57.42275       88.71963
C         44.21438       57.48526       85.84772
H         41.10306       57.79196       88.91185
H         43.19537       55.72274       89.61473
H         43.47027       58.53261       88.33248
H         42.40760       56.87451       86.79514
H         43.77435       55.73030       87.04326
H         45.63621       56.37428       88.81660
H         45.87826       57.93936       87.94403
H         45.52582       57.98384       89.63993
H         43.95808       58.56369       85.80286
H         45.31429       57.37836       85.92239
H         43.90356       57.00902       84.89505
N         42.17531       58.11003       91.58291
C         42.42259       58.70227       92.90091
C         41.71556       57.93022       94.00434
O         41.84712       58.31114       95.16020
C         41.92388       60.16115       92.93544
C         42.55316       61.04391       91.90006
O         41.85134       61.63139       91.09350
O         43.88511       61.23315       91.88414
H         41.22715       58.19781       91.19243
H         43.50775       58.68888       93.14403
H         42.13901       60.60194       93.93326
H         40.82401       60.15898       92.78822
N         40.93670       56.84594       93.73408
C         40.18550       56.11711       94.74020
C         39.04716       56.89681       95.39259
O         38.35196       56.28520       96.19104
H         40.88232       56.48580       92.77265
H         40.88196       55.74292       95.52121
H         39.72480       55.23323       94.24654
N         38.78307       58.21906       95.14451
C         37.69120       58.93138       95.81862
C         36.30829       58.50339       95.32506
O         35.34302       58.82408       96.00517
C         37.88441       60.47508       95.80357
C         38.18809       61.01537       94.44222
O         39.25997       61.55624       94.22295
O         37.35476       60.77598       93.42898
H         39.38734       58.74394       94.50300
H         37.73172       58.65631       96.89614
H         38.75207       60.72084       96.45396
H         36.98933       60.97820       96.22739
N         36.12034       57.77528       94.18343
C         34.82941       57.22609       93.78589
C         34.24507       57.83507       92.52567
O         33.21107       57.34718       92.09649
H         36.92363       57.56270       93.57963
H         34.06764       57.35477       94.58490
H         34.96002       56.13214       93.63558
N         34.79686       58.92394       91.91191
C         34.19853       59.57282       90.74091
C         35.17776       59.62403       89.58249
O         36.31628       59.24165       89.74906
C         33.61220       60.95208       91.14665
C         34.52381       61.94038       91.90930
C         35.60527       62.59709       91.08598
N         35.64171       63.94457       90.95314
O         36.47378       61.92332       90.56092
H         35.64687       59.33896       92.30835
H         33.33983       58.97253       90.36998
H         32.78515       60.71803       91.85344
H         33.15337       61.45874       90.27071
H         34.96794       61.44347       92.79381
H         33.86451       62.74134       92.30776
H         34.93544       64.54360       91.40456
H         36.38873       64.39725       90.40681
N         34.77108       60.03184       88.34544
C         35.64857       60.05419       87.17303
C         35.60618       61.43729       86.54132
O         34.51978       61.92054       86.26268
C         35.20448       58.95885       86.16185
C         36.04664       59.00259       84.87235
C         35.34391       57.55804       86.78731
H         33.78224       60.28724       88.21470
H         36.69543       59.81691       87.44700
H         34.13948       59.12135       85.88572
H         35.92478       59.97491       84.35255
H         37.12384       58.84912       85.09794
H         35.71432       58.21004       84.16847
H         35.01652       56.77891       86.06604
H         36.40268       57.35548       87.06399
H         34.71589       57.46170       87.69672
N         36.76332       62.09693       86.22167
C         36.77688       63.39569       85.54425
C         37.26374       63.24306       84.10586
O         37.51881       62.13372       83.68012
C         37.58328       64.45622       86.34185
C         39.09271       64.35987       86.26383
N         39.78258       63.37349       86.87424
O         39.70808       65.22971       85.66493
H         37.65980       61.62823       86.40092
H         35.74141       63.79254       85.48343
H         37.25443       64.48170       87.40250
H         37.31195       65.44502       85.91432
H         39.30745       62.65154       87.42758
H         40.81230       63.36267       86.82203
N         37.40622       64.33268       83.29814
C         37.86814       64.28490       81.90688
C         39.21860       63.59661       81.76911
O         39.32732       62.65800       80.99112
C         37.96651       65.73558       81.37189
C         38.62338       65.85036       80.01450
C         38.06596       65.24500       78.87695
C         39.82126       66.57710       79.88735
C         38.69911       65.36731       77.63367
C         40.45000       66.69757       78.64775
C         39.89068       66.09329       77.51473
O         40.48837       66.20444       76.31125
H         37.18337       65.25356       83.69988
H         37.13102       63.72507       81.28861
H         38.56236       66.32802       82.10112
H         36.95140       66.18636       81.33679
H         37.14543       64.68048       78.95145
H         40.27393       67.05146       80.74966
H         38.26349       64.89799       76.76090
H         41.37162       67.26121       78.57125
H         41.31112       66.70065       76.19072
N         40.29594       64.03827       82.46872
C         41.64891       63.50625       82.31902
C         41.68512       62.00071       82.52717
O         42.19385       61.29761       81.66540
C         42.58376       64.24948       83.29398
C         44.06211       63.87200       83.12791
C         44.95704       64.69501       84.01850
O         46.16357       64.51689       83.98732
O         44.45088       65.63562       84.84231
H         40.14293       64.81425       83.12992
H         42.00228       63.72372       81.28506
H         42.26186       64.06259       84.34266
H         42.48576       65.33839       83.08326
H         44.36723       64.04636       82.07323
H         44.20459       62.79732       83.37051
N         41.10947       61.43777       83.62346
C         41.04275       59.99276       83.85300
C         40.40136       59.29106       82.66599
O         41.01565       58.39096       82.10973
C         40.26055       59.70428       85.15193
C         41.05685       60.17511       86.38328
C         40.30410       60.04430       87.67338
O         40.90048       60.41388       88.81991
O         39.16106       59.62212       87.70193
H         40.65426       62.07345       84.29600
H         42.06970       59.57901       83.97200
H         40.08278       58.61186       85.26098
H         39.27395       60.21629       85.10115
H         41.34885       61.23439       86.27477
H         41.98546       59.57678       86.45862
N         39.19082       59.68160       82.19104
C         38.58026       59.08622       81.02359
H         37.62289       59.60245       80.79505
H         39.25399       59.19761       80.14666
H         38.37584       58.01112       81.20567
H         38.70219       60.45254       82.64987
Ca        38.41794       60.07392       91.60540
O         39.17232       63.10381       90.19918
H         40.03574       63.57944       90.11208
H         38.55448       63.60849       89.61328

Ca 1.0



