%chk=holoCaM.loop3.water2.frame175.chk
%nprocshared=20
%mem=10GB
%nosave
#b3lyp/svp scf=(tight,noincore,xqc) Test 
#IOP(5/87=12) Density=Current Pop=(MK,readradii) iop(6/33=2) iop(6/42=6)

holoCaM.loop3.water2.frame175 

   0  1 
C         30.10413       81.47815       97.20560
C         30.05364       82.49497       98.30804
O         31.08469       83.01547       98.70655
H         29.52233       81.85016       96.33595
H         31.14855       81.28005       96.88876
H         29.65083       80.52500       97.55654
N         28.85630       82.78798       98.87494
C         28.65471       83.71620       99.97692
C         28.43832       82.86769      101.21859
O         27.31992       82.71655      101.68602
C         27.49771       84.66765       99.58234
C         26.95180       85.57775      100.65205
O         27.65343       85.92928      101.74380
O         25.75595       85.82122      100.63869
H         28.02885       82.26662       98.54151
H         29.55105       84.34106      100.16528
H         26.64235       84.05243       99.22650
H         27.81407       85.29586       98.72220
N         29.51967       82.23436      101.76859
C         29.45533       81.30816      102.90049
C         29.04606       81.96310      104.22079
O         28.83204       81.22956      105.17638
C         30.83575       80.63994      103.14421
C         31.45208       79.88142      101.95391
C         30.59343       78.70855      101.46976
C         31.33360       77.91553      100.38333
N         30.52376       76.79593       99.90682
H         30.43292       82.39638      101.32073
H         28.70878       80.52340      102.65180
H         30.74876       79.92273      103.99048
H         31.56069       81.42968      103.44480
H         32.43289       79.48490      102.29826
H         31.65412       80.56707      101.10479
H         29.63586       79.09131      101.05670
H         30.37606       78.03216      102.32494
H         32.28825       77.52290      100.80091
H         31.57514       78.58454       99.52722
H         31.06649       76.26357       99.18890
H         30.29288       76.15472      100.70028
H         29.64250       77.15231       99.47092
N         28.95811       83.31548      104.37182
C         28.60515       83.97657      105.62789
C         27.26472       84.70890      105.50756
O         26.82217       85.28573      106.49089
C         29.78655       84.87063      106.09904
C         30.07982       86.00509      105.16184
O         29.30599       86.94242      105.11070
O         30.97219       85.84383      104.16640
H         29.15734       83.91253      103.56681
H         28.46069       83.21966      106.42891
H         30.69057       84.22844      106.17706
H         29.58876       85.28512      107.11146
N         26.52335       84.65480      104.35798
C         25.16770       85.16041      104.22755
C         25.01497       86.66363      104.25324
O         23.87496       87.10295      104.19262
H         26.87755       84.13739      103.54998
H         24.54687       84.71195      105.03279
H         24.75095       84.81564      103.25484
N         26.07002       87.52645      104.33999
C         25.86214       88.97082      104.43741
C         25.24502       89.57001      103.17746
O         24.80635       90.71113      103.22995
C         27.15744       89.71394      104.82992
C         28.17977       89.81900      103.72047
N         28.61196       91.03472      103.31008
O         28.62964       88.81149      103.19711
H         27.02092       87.14976      104.39571
H         25.15284       89.11672      105.28272
H         27.61198       89.20613      105.70800
H         26.87957       90.74005      105.15364
H         28.25386       91.89957      103.74082
H         29.31754       91.11776      102.56654
N         25.20655       88.87322      102.00460
C         24.59700       89.36395      100.78334
C         25.60360       89.59322       99.67710
O         25.16894       89.90381       98.57896
H         25.63752       87.94182      101.95642
H         24.06035       90.32436      100.94563
H         23.84798       88.61370      100.45042
N         26.95482       89.54657       99.89775
C         27.92544       89.92881       98.87476
C         29.06828       88.94242       98.74380
O         29.22445       88.04303       99.55448
C         28.50219       91.30643       99.25339
C         27.44182       92.37204       99.17138
C         26.94622       92.99458      100.32845
C         26.93995       92.75083       97.91612
C         25.95769       93.97918      100.22696
C         25.96187       93.74082       97.81611
C         25.46557       94.35840       98.97239
O         24.52020       95.31559       98.88867
H         27.31025       89.35734      100.84403
H         27.43885       89.98776       97.87724
H         29.33834       91.60794       98.58625
H         28.91286       91.23349      100.28205
H         27.31383       92.71230      101.30675
H         27.31586       92.28458       97.01354
H         25.57502       94.44918      101.12403
H         25.59266       94.02614       96.83929
H         24.16244       95.60972       98.03858
N         29.91375       89.09056       97.68260
C         31.10801       88.29597       97.44089
C         32.26429       89.25099       97.19829
O         32.17668       90.07668       96.30094
C         30.89754       87.36324       96.20818
C         29.80548       86.31361       96.54548
C         32.21902       86.66935       95.80430
C         29.47245       85.35925       95.39814
H         29.68653       89.81455       96.98424
H         31.34058       87.64176       98.30982
H         30.56506       87.97783       95.34172
H         28.86658       86.84222       96.81329
H         30.12599       85.70840       97.42282
H         32.98947       87.41782       95.52960
H         32.60647       86.04007       96.63169
H         32.08945       86.04500       94.89897
H         30.34074       84.72348       95.13150
H         28.65550       84.67830       95.71677
H         29.13897       85.93017       94.50653
N         33.41969       89.11773       97.90581
C         34.63103       89.86406       97.59121
C         35.58696       88.97304       96.81783
O         35.32602       87.78944       96.65808
C         35.28363       90.39666       98.87917
O         35.65579       89.32760       99.70893
H         33.47520       88.37153       98.60432
H         34.38913       90.72510       96.93140
H         34.56400       91.05099       99.41735
H         36.18445       90.99488       98.61200
H         36.25019       89.70467      100.40844
N         36.71690       89.50189       96.27472
C         37.67973       88.71020       95.51859
C         38.29169       87.63334       96.38701
O         38.43799       86.51123       95.92298
C         38.78832       89.60793       94.96421
H         36.89238       90.51068       96.39758
H         37.17832       88.24456       94.63947
H         39.50015       89.00110       94.36323
H         38.34661       90.38017       94.29836
H         39.34210       90.11000       95.78500
N         38.66515       87.90921       97.66895
C         39.28709       86.93024       98.55031
C         38.42504       85.69031       98.72394
O         38.88627       84.61304       98.37217
C         39.59171       87.56288       99.91466
H         38.50585       88.86406       98.02774
H         40.25770       86.62576       98.09803
H         40.09747       86.82870      100.57656
H         40.26319       88.43825       99.78317
H         38.65994       87.91164      100.40962
N         37.17448       85.75205       99.27062
C         36.36632       84.54868       99.48730
C         35.96750       83.84231       98.19415
O         35.47483       82.72563       98.27907
C         35.10086       84.84574      100.32290
C         34.11308       85.77875       99.60925
C         32.88339       85.99393      100.43749
O         32.55637       87.22915      100.86006
O         32.16716       85.04851      100.72209
H         36.82503       86.66810       99.58570
H         36.99060       83.84698      100.08419
H         35.40177       85.30298      101.29120
H         34.58917       83.88294      100.54541
H         33.80074       85.35014       98.63409
H         34.61190       86.74590       99.42673
N         36.10951       84.43440       96.97406
C         35.73748       83.80024       95.72584
H         36.62789       83.74539       95.06511
H         35.34567       82.77181       95.87051
H         34.95504       84.40783       95.22448
H         36.47561       85.39042       96.91155
Ca        29.83975       85.80631      102.23438
O         32.78705       88.22871      104.33445
H         33.42323       88.49860      103.62567
H         33.19249       87.41847      104.73393
O         31.43341       89.80969      101.65235
H         31.25456       90.50274      100.96868
H         32.11119       90.21815      102.24709

Ca 1.0



