%chk=holoCaM-CaMKII.loop3.water2.frame92.chk
%nprocshared=20
%mem=10GB
%nosave
#b3lyp/svp scf=(tight,noincore,xqc) Test 
#IOP(5/87=12) Density=Current Pop=(MK,readradii) iop(6/33=2) iop(6/42=6)

holoCaM-CaMKII.loop3.water2.frame92 

   0  1 
C         15.52559       41.76692       53.93759
C         16.54874       40.86358       53.31949
O         16.18384       39.84045       52.76079
H         14.50511       41.34096       53.83004
H         15.74545       41.89975       55.01811
H         15.55802       42.75495       53.43312
N         17.87015       41.17415       53.41356
C         18.93518       40.35639       52.85116
C         19.61681       39.63180       53.99506
O         20.79104       39.84005       54.26800
C         19.86726       41.26381       52.02332
C         20.94702       40.49788       51.33244
O         22.23789       40.79951       51.56090
O         20.65838       39.62282       50.53543
H         18.13878       42.01386       53.95029
H         18.52117       39.57455       52.17465
H         20.31903       42.03994       52.67822
H         19.28098       41.77608       51.23723
N         18.87630       38.75611       54.72922
C         19.37003       38.04428       55.90054
C         20.50545       37.12013       55.51724
O         21.57770       37.24098       56.09315
C         18.23119       37.25484       56.58720
C         17.10276       38.19014       57.06949
C         16.00071       37.41927       57.80605
C         14.79409       38.30610       58.16896
N         15.14582       39.40412       59.07162
H         17.89970       38.60587       54.43867
H         19.74020       38.78449       56.64597
H         18.65278       36.72596       57.47070
H         17.81346       36.49574       55.88987
H         16.63841       38.70672       56.20483
H         17.53780       38.95510       57.74676
H         16.41980       36.95406       58.72472
H         15.62679       36.60862       57.14314
H         14.03034       37.66498       58.66184
H         14.34145       38.72080       57.24044
H         15.78397       40.08286       58.59884
H         14.27308       39.91636       59.33514
H         15.59446       39.03110       59.93913
N         20.35025       36.19458       54.52509
C         21.42667       35.30439       54.09193
C         22.68116       36.09963       53.75591
O         23.69034       35.88125       54.41237
C         20.98564       34.36938       52.93734
C         20.57567       35.07556       51.67516
O         19.52760       35.91622       51.67983
O         21.17947       34.87415       50.63417
H         19.43192       36.13798       54.06332
H         21.67535       34.63628       54.94751
H         20.12483       33.75401       53.27653
H         21.82598       33.67775       52.70722
N         22.68209       37.07407       52.80079
C         23.81452       37.95707       52.57589
C         24.40280       37.80051       51.19706
O         25.59575       37.54133       51.11521
H         21.82820       37.25348       52.25559
H         24.62150       37.78215       53.32123
H         23.47762       39.00029       52.72362
N         23.64714       37.94774       50.06712
C         24.21978       37.83887       48.72342
C         24.00571       39.08585       47.86641
O         24.59536       39.14921       46.79694
C         23.71955       36.55773       48.02603
C         22.26559       36.58237       47.61808
N         21.91819       36.36224       46.32878
O         21.39500       36.77406       48.45166
H         22.63812       38.11148       50.17288
H         25.32118       37.72189       48.81334
H         23.88563       35.69955       48.71253
H         24.34388       36.38387       47.12306
H         22.63378       36.17858       45.61031
H         20.92958       36.36271       46.04321
N         23.17972       40.10517       48.24870
C         22.99618       41.32852       47.48395
C         21.62416       41.43823       46.85394
O         21.37663       42.46063       46.22817
H         22.64451       40.03243       49.11696
H         23.73185       41.40033       46.65462
H         23.17296       42.19227       48.16066
N         20.71146       40.42109       46.89427
C         19.46088       40.45106       46.13623
C         18.24904       40.21770       47.01134
O         18.38891       39.81407       48.15382
C         19.55235       39.37583       45.03792
C         20.61973       39.76570       44.04505
C         21.89589       39.17967       44.07402
C         20.34362       40.75926       43.09362
C         22.88110       39.58860       43.16981
C         21.32285       41.15635       42.18084
C         22.59558       40.57842       42.21771
O         23.53392       40.98542       41.33957
H         20.94078       39.55048       47.39781
H         19.31294       41.44704       45.66353
H         18.59342       39.22970       44.49523
H         19.79903       38.40912       45.52952
H         22.13933       38.42909       44.80854
H         19.36472       41.22107       43.05784
H         23.86603       39.14039       43.21377
H         21.09214       41.91932       41.44874
H         24.43037       40.62112       41.33807
N         17.01288       40.54029       46.53681
C         15.76819       40.40979       47.28890
C         14.71227       39.79122       46.38619
O         14.47542       40.32493       45.30871
C         15.27924       41.81421       47.76202
C         16.30329       42.53892       48.67511
C         13.90578       41.73859       48.46561
C         16.55757       41.87438       50.03286
H         16.95982       40.97922       45.60313
H         15.90776       39.78192       48.19612
H         15.15124       42.45391       46.86030
H         15.92613       43.56528       48.87529
H         17.27074       42.64606       48.14041
H         13.93980       41.07273       49.35173
H         13.58126       42.75013       48.78849
H         13.12730       41.34961       47.77952
H         16.99012       40.86117       49.92759
H         17.26718       42.50298       50.60463
H         15.62985       41.80727       50.63400
N         13.96518       38.73274       46.80400
C         12.82538       38.21580       46.05169
C         11.53717       38.56316       46.77833
O         11.59558       39.15434       47.84559
C         12.97002       36.69818       45.85253
O         12.97629       36.04359       47.09294
H         14.14843       38.33630       47.73721
H         12.76734       38.69113       45.04816
H         13.91970       36.48558       45.31529
H         12.12155       36.32903       45.23295
H         12.80159       35.08459       46.90638
N         10.32494       38.23783       46.25364
C          9.06210       38.51421       46.93543
C          9.01846       37.81564       48.28113
O          8.67931       38.44760       49.27118
C          7.88157       38.05307       46.07791
H         10.29981       37.76155       45.33824
H          8.94549       39.61204       47.08456
H          7.89161       38.59223       45.10647
H          7.93186       36.96055       45.88595
H          6.92501       38.28683       46.59368
N          9.41843       36.51673       48.38751
C          9.46463       35.77358       49.64325
C         10.22691       36.53058       50.71255
O          9.70421       36.70104       51.80536
C         10.13497       34.41137       49.41301
H          9.75172       36.04679       47.53122
H          8.42847       35.59163       50.00421
H         10.16094       33.82845       50.35823
H          9.56948       33.82886       48.65545
H         11.17799       34.54229       49.04941
N         11.46467       37.03110       50.45348
C         12.26381       37.75171       51.44116
C         11.50744       38.97026       51.94489
O         11.26328       39.05899       53.14049
C         13.64306       38.13357       50.85399
C         14.43984       36.86985       50.47266
C         15.78795       37.16746       49.89442
O         16.05497       36.80673       48.75919
O         16.74357       37.74550       50.63957
H         11.83724       36.89785       49.50272
H         12.45412       37.08053       52.30938
H         14.21471       38.70187       51.61608
H         13.50801       38.78248       49.96401
H         13.88213       36.27746       49.72123
H         14.58147       36.23066       51.36984
N         11.06044       39.92560       51.08664
C         10.26614       41.05159       51.52680
H          9.33315       40.68815       52.01004
H         10.84189       41.67010       52.24599
H          9.98423       41.67948       50.65445
H         11.25999       39.83916       50.08504
Ca        18.80909       37.69542       49.74467
O         17.31775       34.28962       50.20093
H         17.44356       34.38503       51.17799
H         16.34307       34.15490       50.09195
O         18.52582       35.53643       47.31662
H         17.64548       35.08629       47.26864
H         18.57047       36.07695       46.48852

Ca 1.0



