%chk=holoCaM.loop2.water2.frame179.chk
%nprocshared=20
%mem=10GB
%nosave
#b3lyp/svp scf=(tight,noincore,xqc) Test 
#IOP(5/87=12) Density=Current Pop=(MK,readradii) iop(6/33=2) iop(6/42=6)

holoCaM.loop2.water2.frame179 

   -2  1 
C         24.65406       70.63685       97.46321
C         24.39711       72.09349       97.73186
O         24.45370       72.89869       96.81572
H         25.50497       70.28146       98.08091
H         23.74878       70.04905       97.73193
H         24.88173       70.45730       96.39141
N         24.07012       72.49006       98.98929
C         23.68784       73.85193       99.34806
C         24.81782       74.86541       99.20048
O         25.85602       74.69996       99.82536
C         23.20082       73.86621      100.80906
C         22.74131       75.22740      101.22369
O         23.33498       75.84551      102.26197
O         21.84206       75.78221      100.61336
H         24.02391       71.75870       99.71697
H         22.82543       74.14889       98.71189
H         24.02078       73.53390      101.48253
H         22.35198       73.16329      100.92617
N         24.62697       75.99350       98.45319
C         25.56737       77.10629       98.38162
C         24.94115       78.44472       98.81465
O         25.67105       79.42623       98.83432
C         26.07743       77.22452       96.94112
H         23.75785       76.08022       97.91979
H         26.44033       76.91223       99.04136
H         26.82796       78.03907       96.85428
H         26.55985       76.27324       96.63074
H         25.23568       77.43818       96.24632
N         23.61087       78.58544       99.11990
C         22.96924       79.87682       99.40592
C         22.16032       79.90504      100.71430
O         21.61086       80.95241      101.02812
C         22.10113       80.28363       98.19317
C         21.17723       79.19530       97.72281
O         20.26516       78.66863       98.55007
O         21.27204       78.76508       96.58481
H         22.99279       77.76630       99.06270
H         23.73191       80.67898       99.51578
H         22.78207       80.53089       97.34928
H         21.52054       81.20182       98.42903
N         22.07697       78.83185      101.54912
C         21.41270       78.84482      102.85104
C         19.89156       78.95955      102.85317
O         19.33631       78.94858      103.94324
H         22.59157       77.98517      101.30069
H         21.84021       79.66883      103.46326
H         21.65114       77.89000      103.36835
N         19.14050       79.07672      101.71948
C         17.68132       79.23571      101.74263
C         16.90115       77.97608      102.15806
O         15.68008       78.04720      102.19638
C         17.16638       79.78187      100.38836
C         17.30521       78.86503       99.20085
N         16.84061       79.26560       97.99634
O         17.82542       77.76726       99.31169
H         19.62383       79.13473      100.81878
H         17.44223       80.04034      102.47428
H         17.70170       80.73014      100.16237
H         16.08697       80.02459      100.49758
H         16.40244       80.19100       97.88337
H         16.90752       78.64954       97.17616
N         17.51373       76.80834      102.51285
C         16.78928       75.63390      102.98887
C         16.16071       74.76727      101.90512
O         15.60144       73.74136      102.26531
H         18.53934       76.76654      102.54860
H         16.03265       75.93831      103.74593
H         17.51701       74.97409      103.50879
N         16.22587       75.07533      100.57655
C         15.70814       74.21474       99.51089
C         16.84932       73.90310       98.49539
O         16.96068       74.99082       97.64361
C         14.49895       74.91710       98.81659
C         13.26946       74.96623       99.71610
O         14.83106       76.24152       98.46221
H         16.66879       75.95467      100.29738
H         15.36665       73.24095       99.92614
H         14.19825       74.32943       97.91757
H         14.85203       76.30308       97.47188
H         12.94617       73.93574       99.97236
H         13.48178       75.53242      100.64656
H         12.44039       75.46993       99.17304
N         16.60875       72.67045       97.71387
C         17.51039       72.50095       96.54456
C         17.05649       73.37844       95.36761
O         15.94379       73.21145       94.88764
C         17.58947       70.98689       96.15259
C         18.26894       70.18802       97.30121
C         18.36098       70.78703       94.83197
C         18.39587       68.68170       97.05552
H         15.60970       72.57600       97.42010
H         18.54072       72.80699       96.82816
H         16.55713       70.60261       95.99428
H         17.68792       70.32741       98.23758
H         19.29386       70.57926       97.46495
H         19.40544       71.14132       94.93170
H         18.36698       69.72395       94.52124
H         17.86422       71.32568       94.00271
H         18.86854       68.20661       97.94168
H         17.39815       68.22575       96.89256
H         19.05377       68.46367       96.18931
N         17.89295       74.33610       94.85760
C         17.57384       75.17693       93.70392
C         17.84379       74.41100       92.40002
O         18.30424       73.28407       92.45976
C         18.46797       76.44947       93.67927
C         18.27902       77.52917       94.72430
O         18.69757       77.42834       96.00253
O         17.85154       78.61363       94.35964
H         18.82808       74.43604       95.27095
H         16.50680       75.48958       93.74188
H         18.23438       76.96803       92.72893
H         19.54132       76.16495       93.65514
N         17.61416       74.98081       91.17534
C         17.97010       74.34179       89.90588
C         19.48469       74.11147       89.78482
O         19.84447       72.96905       89.54061
C         17.42914       75.14605       88.69367
C         17.81621       74.52063       87.36952
C         17.32799       73.25431       87.00302
C         18.67798       75.20197       86.48904
C         17.69436       72.68288       85.77949
C         19.04621       74.62370       85.27012
C         18.55381       73.36588       84.91493
H         17.17264       75.91152       91.13914
H         17.46123       73.35225       89.85900
H         17.79259       76.18324       88.71900
H         16.32180       75.21568       88.75211
H         16.66078       72.71209       87.66025
H         19.07395       76.17630       86.74785
H         17.31233       71.70930       85.50104
H         19.71444       75.15062       84.60067
H         18.83842       72.92072       83.96994
N         20.43791       75.09797       89.92444
C         21.87912       74.86653       89.81323
C         22.35723       73.67220       90.61115
O         23.08827       72.83658       90.09923
C         22.49532       76.14161       90.42176
C         21.49804       77.19089       90.01776
C         20.17852       76.47956       90.28802
H         22.15136       74.77089       88.73894
H         22.45358       76.10830       91.53568
H         23.54871       76.33614       90.12971
H         21.60206       78.17083       90.53240
H         21.60125       77.34374       88.92026
H         19.92517       76.50900       91.36079
H         19.41212       76.99384       89.69263
N         21.96344       73.56034       91.90247
C         22.39563       72.52649       92.82952
C         21.94295       71.15967       92.35193
O         22.76103       70.25467       92.26833
C         21.83229       72.84405       94.22916
C         22.33021       74.22016       94.73661
C         21.72293       74.60912       96.04342
O         21.01169       73.83783       96.66080
O         21.91678       75.85275       96.51232
H         21.30032       74.27276       92.23896
H         23.50519       72.53660       92.92082
H         22.14133       72.05353       94.94858
H         20.72237       72.86604       94.17431
H         22.04617       75.02757       94.03732
H         23.43713       74.23126       94.82152
N         20.65041       70.95110       91.98537
C         20.16330       69.67817       91.50472
H         19.09611       69.77379       91.20757
H         20.74700       69.35574       90.61646
H         20.24274       68.91593       92.30704
H         19.99226       71.73448       92.01810
Ca        19.04660       75.71145       97.37708
O         20.24851       72.46993       99.39677
H         20.80430       71.76238       99.80651
H         20.36280       72.32926       98.42760
O         19.31700       74.79221      100.99316
H         19.76390       74.74149      101.87544
H         18.77636       73.96607      100.94638

Ca 1.0



