%chk=holoCaM.loop2.water3.frame383.chk
%nprocshared=20
%mem=10GB
%nosave
#b3lyp/svp scf=(tight,noincore,xqc) Test 
#IOP(5/87=12) Density=Current Pop=(MK,readradii) iop(6/33=2) iop(6/42=6)

holoCaM.loop2.water3.frame383 

   -2  1 
C        100.82119       76.43345      101.26838
C        100.30571       76.92414      102.58969
O         99.09706       77.01318      102.75328
H        101.93062       76.38878      101.25553
H        100.42621       75.41425      101.07252
H        100.48439       77.11591      100.46057
N        101.16780       77.25174      103.59295
C        100.71168       77.69859      104.90232
C         99.97012       79.02551      104.78524
O        100.55178       79.98937      104.30595
C        101.90892       77.86636      105.86184
C        101.48370       78.14445      107.27960
O        100.31559       78.06555      107.62107
O        102.40737       78.46924      108.19331
H        102.18109       77.14786      103.42617
H        100.05567       76.90427      105.31760
H        102.54807       78.69990      105.49650
H        102.52802       76.94290      105.87676
N         98.67657       79.14331      105.19926
C         97.91786       80.38685      105.08204
C         98.41280       81.51235      105.99970
O         97.96039       82.63337      105.81553
C         96.43299       80.11827      105.35379
H         98.20288       78.30234      105.55521
H         98.00547       80.72803      104.02624
H         96.05858       79.33955      104.65405
H         96.28690       79.75872      106.39525
H         95.83233       81.03905      105.19823
N         99.30940       81.30057      107.00969
C         99.84498       82.35801      107.87652
C        101.37059       82.47539      107.77260
O        101.92558       83.34894      108.42544
C         99.40086       82.15504      109.34803
C         99.63241       80.76451      109.85499
O         98.59652       80.08112      110.36440
O        100.72156       80.23145      109.75718
H         99.63052       80.34309      107.18411
H         99.45164       83.35144      107.57001
H         98.30904       82.35460      109.42543
H         99.91648       82.89016      110.00181
N        102.11244       81.68294      106.94426
C        103.54482       81.84814      106.72793
C        104.44688       81.43016      107.87754
O        105.65469       81.48795      107.69475
H        101.64356       80.97960      106.36275
H        103.75435       82.90074      106.43923
H        103.83217       81.20210      105.86991
N        103.96768       80.97766      109.06999
C        104.82767       80.50614      110.15714
C        105.44062       79.12175      109.88065
O        106.13911       78.61782      110.74940
C        104.03347       80.50560      111.48327
C        103.59120       81.90969      111.84131
N        102.28160       82.21799      111.98211
O        104.43329       82.78047      112.00687
H        102.95559       80.98698      109.22903
H        105.66462       81.22601      110.30387
H        104.67907       80.14115      112.31155
H        103.16244       79.82281      111.39786
H        101.55276       81.50345      111.85835
H        101.99441       83.17983      112.21857
N        105.27816       78.46991      108.68977
C        105.91835       77.20691      108.35675
C        105.34054       76.00462      109.07638
O        106.09924       75.29734      109.71620
H        104.75277       78.91412      107.92953
H        107.01412       77.29326      108.53162
H        105.77540       77.01585      107.27103
N        104.02888       75.65727      108.90916
C        103.39586       74.42710      109.40815
C        102.00521       74.26500      108.77383
O        101.12433       75.08171      109.00288
C        103.25011       74.32557      110.95835
C        104.50122       73.90549      111.74199
O        102.69384       75.48998      111.50428
H        103.46852       76.26364      108.29570
H        104.00638       73.56267      109.06778
H        102.54539       73.48443      111.14794
H        103.39357       76.19438      111.46436
H        104.91877       72.96669      111.31739
H        105.27546       74.68936      111.77502
H        104.21608       73.70673      112.79697
N        101.76862       73.21282      107.93878
C        100.50884       72.94931      107.23821
C         99.47243       72.32454      108.17294
O         99.79590       71.37888      108.87979
C        100.79052       72.01541      106.01231
C        101.72562       72.75327      105.00919
C         99.48543       71.58342      105.31128
C        102.19261       71.89043      103.83646
H        102.55905       72.57893      107.74577
H        100.10789       73.89193      106.80354
H        101.29523       71.09295      106.37799
H        102.64546       73.09186      105.52928
H        101.21270       73.65769      104.61218
H         99.68556       70.89373      104.46851
H         98.84395       71.01108      106.00850
H         98.92570       72.46579      104.93527
H        102.73214       70.99554      104.21213
H        101.34745       71.57433      103.19418
H        102.88631       72.48275      103.20289
N         98.16552       72.72303      108.10730
C         97.05560       72.08714      108.82129
C         96.15434       71.35590      107.83482
O         96.43027       71.40026      106.64498
C         96.22924       73.15712      109.55847
C         97.05395       73.91720      110.54825
O         97.63085       73.27566      111.58175
O         97.19188       75.12329      110.42830
H         97.92351       73.46961      107.44354
H         97.43589       71.33484      109.54782
H         95.38564       72.68693      110.10588
H         95.80367       73.86457      108.81004
N         95.07144       70.63400      108.24070
C         94.21162       69.91263      107.30391
C         93.48900       70.86456      106.34031
O         93.64715       70.66332      105.14822
C         93.25417       68.94339      108.03921
C         92.40378       68.12077      107.09249
C         92.99980       67.27638      106.13586
C         91.00020       68.17840      107.16834
C         92.20730       66.51371      105.27234
C         90.21215       67.40909      106.30557
C         90.81498       66.57888      105.35763
H         94.87606       70.56178      109.25322
H         94.86976       69.25176      106.69552
H         92.60788       69.48065      108.75198
H         93.86657       68.24155      108.64589
H         94.07605       67.20293      106.05535
H         90.51336       68.81387      107.89743
H         92.67349       65.86893      104.53826
H         89.13275       67.45500      106.37269
H         90.20369       65.98411      104.69090
N         92.71109       71.92653      106.74619
C         92.07478       72.87163      105.82398
C         93.00781       73.38730      104.74553
O         92.64104       73.40773      103.57772
C         91.67798       74.04355      106.73935
C         91.33839       73.33208      108.02067
C         92.47488       72.31975      108.12125
H         91.17140       72.39738      105.38090
H         92.56583       74.67651      106.97169
H         90.88387       74.70252      106.32757
H         91.21954       73.98214      108.91364
H         90.38571       72.78057      107.84805
H         93.40406       72.77592      108.52509
H         92.12187       71.51033      108.77899
N         94.24772       73.81618      105.09313
C         95.22965       74.38662      104.17665
C         95.57471       73.38264      103.09417
O         95.44407       73.70291      101.92187
C         96.48714       74.82093      104.97097
C         96.11021       75.89614      106.01362
C         97.18781       76.28879      106.97020
O         98.32881       75.86574      106.89091
O         96.83148       77.11681      107.96428
H         94.50355       73.70648      106.08536
H         94.80863       75.30098      103.69933
H         97.26023       75.23265      104.28583
H         96.90874       73.93195      105.48073
H         95.29403       75.54070      106.66725
H         95.74477       76.80750      105.49351
N         95.97660       72.12667      103.42872
C         96.27565       71.08400      102.47198
H         97.30916       70.71768      102.64307
H         95.56893       70.24018      102.62520
H         96.18639       71.43342      101.42328
H         96.04282       71.87882      104.41810
Ca        98.08095       78.07225      109.54797
O        100.95008       77.74106      110.97096
H        101.45353       78.13490      111.72587
H        101.64699       77.48909      110.31712
O         96.95459       77.68934      112.42921
H         96.97155       78.66194      112.24464
H         96.31814       77.32378      111.76477
O         99.83948       75.19498      111.71078
H         99.19125       75.83641      112.09674
H        100.15512       74.66398      112.48351

Ca 1.0



