%chk=holoCaM.loop4.water3.frame395.chk
%nprocshared=20
%mem=10GB
%nosave
#b3lyp/svp scf=(tight,noincore,xqc) Test 
#IOP(5/87=12) Density=Current Pop=(MK,readradii) iop(6/33=2) iop(6/42=6)

holoCaM.loop4.water3.frame395 

   -3  1 
C         77.51846       49.31563       86.97215
C         76.12403       49.62235       86.51557
O         75.90222       49.65252       85.31661
H         78.22141       50.08003       86.58290
H         77.58718       49.28447       88.07913
H         77.81349       48.31896       86.57710
N         75.12165       49.83010       87.41569
C         73.72514       49.99551       87.03215
C         73.18972       51.33182       87.53138
O         73.32920       51.62407       88.71106
C         72.93205       48.81370       87.61932
C         71.55048       48.67286       87.05149
O         70.75443       47.68601       87.50115
O         71.16500       49.39226       86.14447
H         75.34534       49.80514       88.42275
H         73.62468       49.94566       85.92575
H         72.88512       48.90829       88.72583
H         73.45821       47.86589       87.37338
N         72.55769       52.18968       86.67680
C         72.10754       53.53507       87.04209
C         70.57198       53.64792       87.03572
O         70.06096       54.57623       87.64635
C         72.79216       54.55618       86.06550
C         74.34161       54.43330       86.15809
C         72.34675       56.01178       86.30892
C         75.09939       55.21982       85.08242
H         72.42173       51.88749       85.70427
H         72.42295       53.76167       88.08469
H         72.48499       54.28173       85.03080
H         74.64026       53.37387       86.01727
H         74.68718       54.75277       87.16543
H         72.80874       56.70038       85.57377
H         71.25457       56.12412       86.16150
H         72.61865       56.34103       87.33348
H         74.78518       54.88706       84.07010
H         74.94336       56.31214       85.17578
H         76.18884       55.02946       85.18821
N         69.77654       52.77992       86.34455
C         68.31344       52.89709       86.24362
C         67.58222       51.56779       86.50330
O         66.36135       51.56187       86.42232
C         67.94037       53.47648       84.85270
C         68.72059       52.81166       83.76637
O         68.75416       51.47688       83.69666
O         69.50004       53.46569       83.09061
H         70.22968       52.05285       85.77802
H         67.91620       53.61769       86.99131
H         68.21155       54.55582       84.83599
H         66.84773       53.40454       84.66789
N         68.23434       50.41646       86.84319
C         67.56538       49.15254       87.14721
C         66.85146       48.46246       85.98615
O         66.25205       47.42582       86.23350
H         69.24760       50.44484       86.97827
H         66.83011       49.33412       87.96133
H         68.31585       48.43555       87.53718
N         66.82236       48.97133       84.72142
C         65.98323       48.41587       83.65637
C         66.38253       47.03905       83.12339
O         65.54807       46.44437       82.45354
C         65.83831       49.41841       82.48456
C         67.12235       49.78995       81.78968
O         68.30672       49.31290       82.20523
O         67.09295       50.57347       80.85582
H         67.30787       49.85173       84.54581
H         64.96418       48.30434       84.08960
H         65.39242       50.35705       82.87727
H         65.14089       48.99550       81.72994
N         67.61833       46.48729       83.30141
C         67.98141       45.17658       82.75906
C         68.93975       45.24066       81.57723
O         69.25778       44.18901       81.04369
H         68.33334       47.02406       83.80712
H         67.08160       44.64079       82.38622
H         68.41228       44.55300       83.57144
N         69.40692       46.42542       81.08720
C         70.24937       46.55623       79.90045
C         71.57123       47.21568       80.25967
O         71.77286       47.58738       81.40483
C         69.53668       47.45394       78.85915
C         68.16443       46.93317       78.41842
C         67.58803       47.81046       77.33076
N         67.33060       49.12233       77.54999
O         67.35477       47.32781       76.23279
H         69.14290       47.28954       81.55687
H         70.45792       45.56231       79.44877
H         70.17109       47.54123       77.95162
H         69.41167       48.46976       79.28978
H         67.46501       46.91203       79.28176
H         68.28039       45.89836       78.02935
H         67.51628       49.55471       78.46499
H         66.94499       49.71275       76.79765
N         72.50565       47.43546       79.28798
C         73.72964       48.19331       79.50986
C         73.66674       49.43408       78.63282
O         73.47275       49.31219       77.43214
C         74.98708       47.33814       79.21067
C         76.26247       48.13736       79.53196
C         74.98885       46.04897       80.04720
H         72.32583       47.09193       78.33359
H         73.80609       48.50505       80.57140
H         75.00132       47.05456       78.13531
H         76.28089       48.42662       80.60591
H         77.16642       47.53058       79.31777
H         76.31737       49.05745       78.91584
H         74.96308       46.28349       81.13365
H         74.11074       45.41836       79.79595
H         75.90341       45.45522       79.83292
N         73.84374       50.66779       79.18227
C         73.76053       51.91590       78.43336
C         75.16040       52.40508       78.10018
O         76.12904       51.78013       78.49511
C         72.98970       52.93562       79.31152
C         72.65200       54.25105       78.66195
N         71.80564       54.30031       77.60817
O         73.11740       55.28670       79.11463
H         74.09077       50.72703       80.17615
H         73.22081       51.74679       77.47593
H         73.58618       53.12140       80.23237
H         72.02883       52.49115       79.61701
H         71.38378       53.43963       77.23091
H         71.55241       55.20418       77.18370
N         75.33639       53.50506       77.32275
C         76.64673       54.06108       76.97787
C         77.33503       54.76400       78.15733
O         78.47400       55.17454       77.98432
C         76.50684       54.98015       75.73749
C         75.51096       56.09163       75.96234
C         74.22330       55.99676       75.40510
C         75.83272       57.19791       76.75987
C         73.26170       56.96779       75.68171
C         74.87294       58.18067       77.01914
C         73.58109       58.05985       76.49846
O         72.65384       58.99051       76.79699
H         74.49222       53.91990       76.91548
H         77.30439       53.22202       76.65546
H         76.13602       54.32348       74.91849
H         77.48452       55.38511       75.39704
H         73.94940       55.14677       74.79128
H         76.82151       57.29643       77.18898
H         72.26519       56.85938       75.27335
H         75.12895       59.02559       77.64508
H         71.73931       58.91817       76.48879
N         76.74069       54.90505       79.38411
C         77.41519       55.46098       80.56259
C         77.70286       54.36445       81.58389
O         78.19313       54.67117       82.66188
C         76.54451       56.54546       81.23354
C         76.25392       57.73233       80.31826
C         75.45235       58.77641       81.04243
O         75.95730       59.37862       82.13685
O         74.34275       59.08834       80.64085
H         75.78837       54.54211       79.52881
H         78.39494       55.91202       80.29088
H         77.08308       56.92616       82.13033
H         75.58224       56.09645       81.56778
H         75.68123       57.36727       79.44700
H         77.20493       58.18953       79.96895
N         77.45458       53.05770       81.29586
C         77.67015       51.94793       82.20539
C         78.78702       51.08917       81.65671
O         79.77995       50.90175       82.34483
C         76.37175       51.13410       82.32222
C         75.21924       51.97987       82.87475
C         73.92610       51.22826       82.91803
O         72.82422       51.87923       83.29380
O         73.84534       50.05842       82.58572
H         77.10044       52.81201       80.37015
H         77.95830       52.30507       83.21977
H         76.53881       50.25358       82.97446
H         76.08229       50.76571       81.31667
H         75.05977       52.86439       82.22165
H         75.46337       52.33376       83.89825
N         78.70206       50.56105       80.40255
C         79.74739       49.78007       79.78119
H         80.62266       49.64112       80.44733
H         79.34530       48.78481       79.50311
H         80.08289       50.30019       78.85888
H         77.86317       50.73257       79.83711
Ca        70.85345       50.84267       83.37401
O         73.49340       47.74753       84.26818
H         74.39136       48.10068       84.05871
H         73.51726       46.81967       83.92710
O         70.51826       50.78020       80.58180
H         70.44622       51.67320       81.00384
H         69.68678       50.70202       80.05495
O         70.79464       47.08678       84.05899
H         71.06159       46.17175       83.79227
H         70.40761       46.97564       84.96191

Ca 1.0



