%chk=holoCaM-CaMKII.loop3.water2.frame244.chk
%nprocshared=20
%mem=10GB
%nosave
#b3lyp/svp scf=(tight,noincore,xqc) Test 
#IOP(5/87=12) Density=Current Pop=(MK,readradii) iop(6/33=2) iop(6/42=6)

holoCaM-CaMKII.loop3.water2.frame244 

   0  1 
C          0.19497       97.81784       45.56272
C          0.41167       96.43347       45.03356
O          1.45201       96.18275       44.44123
H         -0.77867       97.90040       46.09043
H          1.00439       98.06280       46.28247
H          0.21242       98.54452       44.72562
N         -0.52145       95.46459       45.23966
C         -0.31825       94.08874       44.82046
C         -0.25026       93.98538       43.29860
O         -1.21600       94.30986       42.62211
C         -1.41571       93.19562       45.42808
C         -1.15700       91.74423       45.21126
O         -0.21913       91.37647       44.53593
O         -1.95483       90.83456       45.77937
H         -1.37525       95.70416       45.76776
H          0.64414       93.75087       45.26654
H         -2.41654       93.46054       45.02491
H         -1.41993       93.35413       46.52841
N          0.90634       93.57548       42.70468
C          1.12944       93.55826       41.25888
C          0.31224       92.47851       40.54902
O         -0.00985       92.65446       39.38284
C          2.64535       93.38776       41.00569
C          3.11393       93.71403       39.58020
C          4.65163       93.65997       39.52611
C          5.20675       94.12328       38.17433
N          6.67064       94.08500       38.17767
H          1.69903       93.34506       43.32317
H          0.84364       94.56195       40.87131
H          2.96924       92.36555       41.30300
H          3.16141       94.12024       41.66723
H          2.78442       94.74641       39.32861
H          2.67625       93.00663       38.84399
H          4.99167       92.62230       39.73666
H          5.06714       94.33284       40.30937
H          4.87292       95.16716       37.97892
H          4.81998       93.47007       37.36221
H          7.04741       94.70481       38.93216
H          7.00506       93.10590       38.33089
H          7.02777       94.42542       37.25600
N         -0.02000       91.31854       41.18789
C         -0.77381       90.21207       40.59016
C         -2.10261       89.95744       41.30864
O         -2.82818       89.06999       40.88092
C          0.13857       88.96176       40.49794
C          0.88591       88.67431       41.77148
O          0.26889       88.24697       42.88501
O          2.08498       88.90257       41.81832
H          0.29924       91.19641       42.15678
H         -1.06481       90.45540       39.54410
H          0.90499       89.20517       39.72836
H         -0.41028       88.06497       40.13848
N         -2.53842       90.75179       42.33207
C         -3.88197       90.69147       42.89393
C         -4.26030       89.43526       43.65642
O         -5.40858       89.37379       44.07432
H         -1.94869       91.52709       42.65454
H         -4.60842       90.82681       42.06276
H         -4.01461       91.54698       43.59206
N         -3.40705       88.39224       43.87820
C         -3.86154       87.15759       44.52896
C         -4.24077       87.32769       46.00761
O         -4.74061       86.37357       46.58761
C         -2.83253       86.01964       44.33094
C         -1.57737       86.14757       45.16135
N         -1.18170       85.13125       45.96268
O         -0.90055       87.15958       45.09879
H         -2.44926       88.44306       43.50608
H         -4.77019       86.83146       43.97417
H         -2.55431       85.98451       43.25471
H         -3.32249       85.05113       44.57085
H         -1.72794       84.25938       46.02378
H         -0.31736       85.20832       46.51847
N         -4.01855       88.49462       46.68304
C         -4.35471       88.72926       48.08059
C         -3.12767       88.93663       48.95992
O         -3.30407       89.19171       50.14113
H         -3.58168       89.27451       46.19191
H         -4.92233       87.87393       48.50714
H         -5.00712       89.62701       48.13366
N         -1.86260       88.74529       48.48037
C         -0.66855       88.67136       49.32588
C          0.49997       89.38605       48.67302
O          0.66978       89.22124       47.47618
C         -0.30203       87.17911       49.43166
C         -1.40089       86.40624       50.11906
C         -1.61166       86.54729       51.49994
C         -2.23713       85.55341       49.38182
C         -2.63717       85.83724       52.13218
C         -3.26906       84.85563       50.01066
C         -3.47053       84.99211       51.39075
O         -4.46032       84.32016       52.01172
H         -1.74722       88.46205       47.49773
H         -0.83948       89.05952       50.35409
H          0.65121       87.02614       49.98346
H         -0.15424       86.79153       48.39959
H         -0.97683       87.20002       52.08627
H         -2.10673       85.44328       48.31783
H         -2.78552       85.94642       53.19880
H         -3.91135       84.21217       49.42266
H         -5.05882       83.72961       51.53207
N          1.41127       90.10269       49.40523
C          2.61901       90.66987       48.79229
C          3.89207       90.01247       49.31252
O          3.88826       89.39780       50.36795
C          2.69398       92.21824       48.93068
C          2.78599       92.67213       50.41149
C          1.50709       92.86993       48.20167
C          3.06082       94.16962       50.57061
H          1.27440       90.19774       50.42165
H          2.61454       90.44246       47.70981
H          3.62254       92.54919       48.41616
H          3.63092       92.14436       50.90302
H          1.85226       92.41473       50.95509
H          1.48217       92.53214       47.14704
H          0.54560       92.59657       48.68456
H          1.60153       93.97394       48.18155
H          4.00835       94.44232       50.05794
H          2.23243       94.78357       50.16495
H          3.16250       94.41291       51.64937
N          5.02487       90.09306       48.55319
C          6.33043       89.54783       48.91908
C          7.38851       90.64238       48.79974
O          7.03823       91.77182       48.50962
C          6.65986       88.36698       47.98738
O          6.78699       88.78450       46.65393
H          4.95339       90.55249       47.63424
H          6.32181       89.15608       49.95921
H          5.88087       87.57506       48.08464
H          7.61109       87.88290       48.29162
H          5.88910       88.70722       46.24191
N          8.71457       90.37304       48.97423
C          9.76315       91.37916       48.79117
C          9.76203       91.96759       47.38682
O          9.95772       93.16853       47.25795
C         11.14092       90.77577       49.07590
H          8.99290       89.41431       49.22786
H          9.61556       92.20325       49.52480
H         11.92608       91.55609       48.96792
H         11.17655       90.39214       50.11748
H         11.36154       89.94427       48.37345
N          9.52463       91.18909       46.29108
C          9.50539       91.70559       44.92143
C          8.54568       92.87439       44.79226
O          8.94100       93.94308       44.34969
C          9.08846       90.59103       43.94538
H          9.32111       90.18840       46.44257
H         10.52637       92.04442       44.64067
H          9.08505       90.97069       42.90113
H          9.79819       89.73957       44.00714
H          8.07023       90.20986       44.18136
N          7.25943       92.72176       45.18922
C          6.22547       93.75396       45.11813
C          6.63390       94.96825       45.93533
O          6.73278       96.04749       45.36642
C          4.88800       93.09307       45.54593
C          4.50355       92.08441       44.43068
C          3.69016       90.88658       44.82688
O          4.13122       89.77075       44.60068
O          2.44268       90.99336       45.29145
H          7.00575       91.79739       45.57335
H          6.10356       94.09767       44.06453
H          4.05794       93.82048       45.68727
H          5.06524       92.58818       46.51742
H          5.41605       91.65003       43.97336
H          4.00066       92.64368       43.61534
N          6.94973       94.86826       47.25246
C          7.44585       95.99508       48.01384
H          8.38568       96.37444       47.55523
H          6.69104       96.80818       48.03566
H          7.67106       95.68050       49.05511
H          6.87185       93.96257       47.72214
Ca         1.14607       89.22278       44.71657
O          2.38313       86.27972       44.09676
H          2.65615       85.52508       44.67667
H          3.13497       86.39084       43.46224
O          2.44357       87.05458       47.05844
H          3.41154       87.25859       47.03002
H          2.32904       86.49369       47.86589

Ca 1.0



