%chk=holoCaM.loop1.water2.frame35.chk
%nprocshared=20
%mem=10GB
%nosave
#b3lyp/svp scf=(tight,noincore,xqc) Test 
#IOP(5/87=12) Density=Current Pop=(MK,readradii) iop(6/33=2) iop(6/42=6)

holoCaM.loop1.water2.frame35 

   0  1 
C         65.03776      101.09662       29.23837
C         63.96357      102.14107       29.22008
O         64.27215      103.31196       29.38677
H         66.03217      101.55812       29.42130
H         64.83130      100.35898       30.04120
H         65.06230      100.57663       28.25788
N         62.66529      101.77888       29.01614
C         61.56496      102.73183       28.95007
C         60.60737      102.42654       30.09698
O         60.06901      101.32923       30.14930
C         60.91757      102.62167       27.55354
C         59.98680      103.75290       27.21950
O         60.21052      104.45316       26.24502
O         58.90119      104.00081       27.96723
H         62.44861      100.77745       28.89064
H         61.96136      103.76501       29.05728
H         60.39112      101.64824       27.45510
H         61.73372      102.64232       26.79607
N         60.42868      103.32645       31.10676
C         59.70749      103.02897       32.34246
C         58.23032      102.72924       32.14078
O         57.63461      102.14390       33.03438
C         59.91310      104.16892       33.37838
C         59.18048      105.48100       33.02164
C         59.59916      106.62994       33.95505
C         58.76922      107.89527       33.68927
N         59.24007      109.02291       34.49427
H         60.92384      104.21784       31.04457
H         60.18750      102.11640       32.76156
H         61.00685      104.36009       33.45595
H         59.55958      103.83924       34.37989
H         58.08511      105.30819       33.10305
H         59.40919      105.78715       31.97945
H         60.67597      106.84976       33.78088
H         59.46230      106.33373       35.01756
H         57.70178      107.68808       33.92878
H         58.84193      108.17189       32.61933
H         59.21150      108.78533       35.51198
H         60.21666      109.27506       34.21596
H         58.62105      109.84828       34.32109
N         57.55622      103.17434       31.04152
C         56.12104      102.97653       30.84326
C         55.77059      102.40774       29.46588
O         54.58786      102.24126       29.19996
C         55.37020      104.29811       31.13447
C         55.72581      105.48509       30.27828
O         55.09866      106.65632       30.49541
O         56.57444      105.41631       29.40612
H         58.06806      103.75185       30.36288
H         55.72765      102.24941       31.58747
H         55.57069      104.58015       32.19122
H         54.27790      104.11654       31.03894
N         56.72063      102.05951       28.54720
C         56.40292      101.49049       27.24272
C         55.67236      102.42095       26.28298
O         55.30893      101.95047       25.21412
H         57.71399      102.12700       28.79504
H         55.78377      100.58129       27.40199
H         57.34473      101.17497       26.74276
N         55.40546      103.72913       26.57159
C         54.61140      104.59251       25.69391
C         55.23024      104.86715       24.32180
O         54.54895      105.47455       23.50669
C         54.23016      105.90948       26.41610
C         55.37478      106.79118       26.84104
O         55.10453      107.93688       27.49356
O         56.53551      106.47958       26.63300
H         55.71444      104.10737       27.47343
H         53.65122      104.06475       25.50210
H         53.65855      105.64638       27.33234
H         53.55969      106.50462       25.75954
N         56.48872      104.46836       23.97946
C         57.03701      104.64939       22.64219
C         57.97083      105.83084       22.54131
O         58.60320      105.96889       21.50356
H         57.09474      104.01179       24.67593
H         56.23880      104.76204       21.87680
H         57.59731      103.72500       22.38126
N         58.10243      106.73565       23.55392
C         59.06579      107.82389       23.52947
C         59.98989      107.66046       24.75567
O         59.29631      108.14385       25.87339
C         58.37122      109.22637       23.49363
C         57.62869      109.49242       22.18250
O         57.49822      109.42626       24.58037
H         57.52282      106.63787       24.39527
H         59.69913      107.74754       22.61916
H         59.16792      109.99998       23.56002
H         56.72374      108.81474       24.47455
H         57.19953      110.51832       22.20646
H         58.33106      109.42655       21.32602
H         56.80332      108.76429       22.04120
N         61.23527      108.41214       24.55846
C         62.17989      108.34571       25.69226
C         62.47505      109.76259       26.13969
O         62.28374      110.71046       25.38324
C         63.45458      107.47259       25.36421
C         63.05911      105.96862       25.41474
C         64.64874      107.75239       26.29595
C         64.20737      104.98020       25.18275
H         61.69742      108.13558       23.66106
H         61.67848      107.89407       26.57806
H         63.82461      107.74108       24.34997
H         62.27582      105.77552       24.65178
H         62.63462      105.73654       26.41729
H         65.54866      107.19301       25.96984
H         64.94196      108.82067       26.24675
H         64.42074      107.46690       27.33228
H         64.96757      105.05040       25.98962
H         63.81076      103.94295       25.21341
H         64.68822      105.15606       24.19915
N         62.84231      109.97337       27.42972
C         63.05334      111.26406       28.05395
C         64.48020      111.35444       28.56684
O         65.24882      110.40999       28.38270
C         62.02997      111.44115       29.21364
C         60.58444      111.34713       28.69840
O         62.25854      110.46285       30.19682
H         62.94613      109.15009       28.03443
H         62.89631      112.08880       27.32161
H         62.16516      112.44529       29.66913
H         61.62215      110.63187       30.94023
H         59.86874      111.49845       29.53492
H         60.39462      112.12754       27.93201
H         60.38844      110.34981       28.25309
N         64.91698      112.45235       29.22594
C         66.26323      112.59353       29.77367
C         66.56417      111.50054       30.79570
O         67.59174      110.85576       30.68640
C         66.46512      113.99009       30.40841
C         66.39257      115.10027       29.35066
O         65.50292      114.21738       31.40752
H         64.24681      113.23112       29.35196
H         67.00922      112.50153       28.94982
H         67.48663      114.01065       30.85489
H         65.84124      114.96025       31.97170
H         66.58553      116.08447       29.82587
H         67.16528      114.93253       28.57016
H         65.39668      115.13830       28.86332
N         65.69867      111.25376       31.81893
C         65.91341      110.22954       32.84581
C         65.99973      108.83869       32.23942
O         67.00199      108.16685       32.45301
C         64.78331      110.32887       33.89804
C         64.98502      111.61438       34.72972
C         63.84452      111.94846       35.69701
C         62.59781      112.46939       34.96259
N         61.59117      112.93940       35.91377
H         64.84086      111.82084       31.86230
H         66.87624      110.42027       33.37064
H         64.81894      109.46515       34.59854
H         63.80058      110.30978       33.37913
H         65.14209      112.50014       34.07762
H         65.91549      111.47206       35.32257
H         64.20932      112.77063       36.35098
H         63.60210      111.07490       36.34029
H         62.16145      111.67582       34.31944
H         62.89185      113.32413       34.31155
H         60.77442      113.32386       35.38611
H         61.26980      112.15017       36.51895
H         61.98940      113.70233       36.50963
N         65.00749      108.34445       31.45308
C         65.05998      107.01875       30.82582
C         66.22395      106.86194       29.84499
O         66.47238      105.74274       29.41773
C         63.77690      106.79614       30.02187
C         62.50011      106.68431       30.85886
C         61.34934      106.94341       29.93362
O         61.20574      108.06742       29.48673
O         60.55111      105.97372       29.46643
H         64.18569      108.94822       31.29286
H         65.16507      106.24416       31.61752
H         63.83430      105.89169       29.37571
H         63.71304      107.67580       29.36404
H         62.44462      107.43902       31.67034
H         62.48825      105.67923       31.32056
N         66.94641      107.92565       29.40052
C         68.03389      107.78986       28.45688
H         68.83737      107.16011       28.89269
H         67.66734      107.33138       27.51427
H         68.45426      108.79161       28.22183
H         66.70716      108.86849       29.71248
Ca        59.45763      106.83818       27.71047
O         58.34137      108.34684       30.12407
H         57.63482      107.73530       30.44742
H         58.10708      109.22655       30.51282
O         57.85431      109.88582       27.75529
H         57.34835      110.56149       28.27142
H         57.16776      109.40671       27.23067

Ca 1.0



