%chk=holoCaM-CaMKII.loop2.water2.frame40.chk
%nprocshared=20
%mem=10GB
%nosave
#b3lyp/svp scf=(tight,noincore,xqc) Test 
#IOP(5/87=12) Density=Current Pop=(MK,readradii) iop(6/33=2) iop(6/42=6)

holoCaM-CaMKII.loop2.water2.frame40 

   -2  1 
C         13.23842       87.21501       23.37764
C         12.57031       87.56121       24.68233
O         11.46084       88.07206       24.66914
H         14.23874       86.75641       23.53894
H         12.61437       86.47820       22.82801
H         13.36663       88.12327       22.75504
N         13.18027       87.25800       25.85827
C         12.56652       87.44428       27.17033
C         12.46468       88.91002       27.57140
O         13.45062       89.62931       27.48692
C         13.37935       86.66430       28.20509
C         12.78957       86.70564       29.58258
O         13.53262       87.06532       30.47890
O         11.51330       86.32649       29.89538
H         14.10104       86.79198       25.81074
H         11.56378       86.97136       27.16807
H         14.42127       87.06178       28.23198
H         13.45688       85.60646       27.90642
N         11.29858       89.38520       28.09857
C         11.09060       90.75347       28.56026
C         10.77313       90.84502       30.05789
O         10.64348       91.96297       30.53824
C          9.91075       91.34423       27.77562
H         10.51299       88.73299       28.18830
H         11.99771       91.36654       28.36838
H          9.71790       92.39725       28.07094
H         10.11459       91.31258       26.68494
H          8.98907       90.75112       27.97534
N         10.56060       89.74163       30.84043
C         10.06002       89.82214       32.22072
C         10.77112       88.89506       33.21864
O         10.41811       88.92402       34.38947
C          8.53448       89.57236       32.20034
C          8.10978       88.23197       31.66473
O          6.92295       87.97919       31.54270
O          9.01409       87.30888       31.30884
H         10.60969       88.81868       30.39720
H         10.19360       90.85493       32.61071
H          8.07802       90.35090       31.55124
H          8.11862       89.69144       33.22334
N         11.78295       88.06467       32.84439
C         12.52641       87.19499       33.75318
C         11.74592       86.02841       34.34431
O         12.32736       85.30358       35.13950
H         12.08726       88.09937       31.87487
H         12.94462       87.81356       34.57524
H         13.38215       86.74942       33.19957
N         10.44759       85.76999       34.02111
C          9.65973       84.69005       34.62284
C         10.08505       83.26661       34.22197
O          9.44647       82.32890       34.68098
C          8.16221       84.91236       34.32774
C          7.77748       84.82560       32.88084
N          6.48946       84.99936       32.53653
O          8.60837       84.60596       32.01381
H          9.97435       86.40724       33.37259
H          9.75035       84.77613       35.72770
H          7.87302       85.92124       34.69645
H          7.56374       84.16171       34.88676
H          5.76515       85.19590       33.24163
H          6.22750       84.93359       31.55562
N         11.15385       83.01387       33.41230
C         11.62500       81.67025       33.09857
C         10.86430       80.95095       31.99541
O         11.28434       79.85245       31.65999
H         11.73293       83.79395       33.08217
H         11.65910       81.05394       34.02478
H         12.67025       81.75528       32.73117
N          9.77074       81.48132       31.37045
C          9.06833       80.80956       30.27476
C          8.96443       81.68854       29.03827
O          8.81977       82.89333       29.16998
C          7.63359       80.37890       30.70635
C          7.69153       79.38536       31.86349
O          6.79343       81.44346       31.10095
H          9.40688       82.38373       31.68883
H          9.60176       79.87933       29.97762
H          7.16390       79.86250       29.83854
H          7.13563       82.30706       30.76572
H          8.09485       79.87846       32.77358
H          6.66638       79.02014       32.08567
H          8.32950       78.51534       31.60259
N          8.88484       81.12774       27.79656
C          8.48561       81.89874       26.62117
C          7.03687       82.29287       26.79490
O          6.21179       81.41943       27.02957
C          8.65537       81.10177       25.29031
C         10.14163       80.72612       25.07103
C          8.13679       81.94197       24.09644
C         10.36508       79.85013       23.83549
H          9.02204       80.11043       27.70136
H          9.11210       82.80125       26.52526
H          8.05130       80.16964       25.35129
H         10.50695       80.14872       25.94437
H         10.76071       81.64672       24.98395
H          7.06233       82.16193       24.21728
H          8.69484       82.90074       24.01274
H          8.20530       81.39967       23.13536
H          9.74876       78.92873       23.90561
H         10.11751       80.38691       22.89794
H         11.43442       79.56239       23.77501
N          6.64759       83.58215       26.60440
C          5.25224       83.98701       26.63385
C          4.73722       84.12101       25.21278
O          5.52958       84.02335       24.29744
C          5.09956       85.29064       27.42527
C          5.68358       85.17999       28.80500
O          4.90657       85.06750       29.73823
O          7.02664       85.32008       29.03756
H          7.34957       84.27685       26.32108
H          4.64026       83.19404       27.11884
H          4.00907       85.50107       27.50273
H          5.57333       86.15555       26.91614
N          3.41336       84.27721       24.93491
C          2.90422       84.32488       23.56315
C          3.45258       85.51550       22.76816
O          3.95615       85.27101       21.68061
C          1.36563       84.33829       23.53171
C          0.84971       84.17645       22.11682
C          0.28187       85.26757       21.43990
C          0.93735       82.93303       21.45997
C         -0.18682       85.12061       20.13037
C          0.45229       82.78691       20.15520
C         -0.10712       83.88090       19.49043
H          2.74558       84.31143       25.72037
H          3.21737       83.38150       23.05802
H          1.00720       85.28663       23.97617
H          0.95159       83.50970       24.14671
H          0.21760       86.23522       21.92024
H          1.36717       82.07394       21.96069
H         -0.61292       85.96905       19.61153
H          0.50927       81.82619       19.65812
H         -0.47817       83.76866       18.47941
N          3.41125       86.81930       23.20522
C          3.93450       87.94437       22.43187
C          5.41490       87.77967       22.13992
O          5.84864       88.14178       21.05532
C          3.61196       89.16820       23.30374
C          3.61505       88.60399       24.70581
C          2.92171       87.26180       24.50046
H          3.41002       88.07312       21.45930
H          4.25143       90.06207       23.13712
H          2.55581       89.45800       23.10269
H          4.67091       88.42418       25.00093
H          3.14794       89.24537       25.48358
H          3.21031       86.62522       25.35366
H          1.81902       87.38342       24.44257
N          6.23334       87.16998       23.03282
C          7.64506       86.90312       22.78604
C          7.78570       85.95927       21.60120
O          8.52423       86.26360       20.67580
C          8.29395       86.32992       24.05978
C          8.15269       87.34082       25.22252
C          8.71780       86.86042       26.50930
O          8.52657       87.60404       27.61328
O          9.31096       85.79872       26.58129
H          5.81628       86.83794       23.91193
H          8.17958       87.85420       22.56536
H          9.37236       86.13008       23.87363
H          7.80499       85.37132       24.33103
H          7.08790       87.54698       25.43689
H          8.64235       88.30199       24.95979
N          7.03991       84.82349       21.53695
C          7.04843       83.92152       20.40898
H          6.76201       84.46858       19.48585
H          8.05113       83.46479       20.29069
H          6.30226       83.11237       20.57518
H          6.39542       84.61155       22.29772
Ca         9.36514       85.57532       29.29790
O         11.68634       83.65859       30.53853
H         12.63983       83.71295       30.79794
H         11.68385       83.81932       29.56467
O         11.77185       84.10623       27.05895
H         12.35611       84.40048       26.31804
H         10.92245       83.89705       26.61243

Ca 1.0



