%chk=holoCaM-CaMKII.loop3.water1.frame414.chk
%nprocshared=20
%mem=10GB
%nosave
#b3lyp/svp scf=(tight,noincore,xqc) Test 
#IOP(5/87=12) Density=Current Pop=(MK,readradii) iop(6/33=2) iop(6/42=6)

holoCaM-CaMKII.loop3.water1.frame414 

   0  1 
C         40.36928       47.87811       41.74670
C         39.98368       46.73503       42.63516
O         40.86084       46.07804       43.17805
H         41.47438       47.96495       41.67424
H         39.95215       47.72468       40.72972
H         39.96446       48.82136       42.17010
N         38.66795       46.43927       42.82383
C         38.20106       45.37885       43.70483
C         37.53848       44.31063       42.83558
O         36.57116       44.62012       42.15317
C         37.26004       46.02031       44.75654
C         36.94165       45.12979       45.92174
O         37.16866       45.48859       47.06495
O         36.37532       43.94444       45.70928
H         37.96058       46.99818       42.32012
H         39.06346       44.93117       44.24490
H         36.31829       46.34112       44.26007
H         37.75234       46.92855       45.16902
N         38.06479       43.05028       42.74562
C         37.58425       42.04046       41.79200
C         36.12457       41.64021       41.98501
O         35.56514       41.02973       41.08476
C         38.48809       40.77344       41.82321
C         38.39026       39.99369       43.15343
C         39.38094       38.82021       43.22528
C         39.42153       38.14479       44.61316
N         38.15628       37.51190       44.98729
H         38.89908       42.83651       43.30948
H         37.67655       42.49887       40.78191
H         39.54044       41.09574       41.65955
H         38.21107       40.08923       40.99145
H         37.35975       39.60433       43.26563
H         38.60271       40.68061       43.99215
H         40.40345       39.21045       43.02965
H         39.13950       38.06935       42.44249
H         39.69701       38.89496       45.38394
H         40.21630       37.36661       44.59929
H         37.40241       38.22149       45.08929
H         37.87915       36.79997       44.27481
H         38.27536       37.04082       45.91376
N         35.48196       41.86180       43.16433
C         34.12632       41.40186       43.46221
C         33.26861       42.49113       44.12318
O         32.11317       42.20977       44.40995
C         34.19474       40.10999       44.32742
C         35.07656       40.26280       45.53287
O         34.57089       40.70811       46.68564
O         36.28205       40.34234       45.37757
H         36.02335       42.27869       43.92965
H         33.59845       41.11492       42.52545
H         34.62176       39.28712       43.71300
H         33.17217       39.79613       44.62656
N         33.73269       43.75477       44.37157
C         32.91839       44.82150       44.94298
C         32.42259       44.60710       46.36926
O         31.64607       45.44114       46.81360
H         34.67712       44.01818       44.07280
H         32.03301       44.96073       44.28504
H         33.49727       45.77118       44.92919
N         32.76851       43.53160       47.13939
C         32.11564       43.25137       48.42205
C         32.36873       44.27451       49.52583
O         31.69883       44.16617       50.54407
C         32.43719       41.81947       48.93220
C         33.82270       41.60300       49.50600
N         34.19519       40.36982       49.91748
O         34.60606       42.53030       49.62336
H         33.41697       42.83984       46.75423
H         31.02370       43.25569       48.20519
H         32.26830       41.10748       48.09553
H         31.71957       41.55913       49.73975
H         33.55143       39.57015       49.83435
H         35.13322       40.21286       50.31526
N         33.31660       45.25787       49.43496
C         33.54044       46.22355       50.50702
C         34.92544       46.16273       51.12558
O         35.14443       46.90555       52.07230
H         33.89631       45.33499       48.58677
H         32.81943       46.06774       51.33746
H         33.36733       47.24713       50.11221
N         35.91638       45.34375       50.66345
C         37.24413       45.29946       51.27546
C         38.22817       44.53034       50.41404
O         37.89964       43.44587       49.95016
C         37.23412       44.71591       52.71184
C         36.86663       43.25229       52.81479
C         37.87620       42.27171       52.82392
C         35.52673       42.85473       52.94688
C         37.55081       40.91923       52.95314
C         35.20378       41.49958       53.08798
C         36.21209       40.52839       53.09052
O         35.88458       39.22745       53.22915
H         35.74232       44.77143       49.82724
H         37.62345       46.34245       51.35953
H         36.59431       45.30729       53.39970
H         38.26390       44.83764       53.11679
H         38.91739       42.55385       52.72744
H         34.73497       43.59287       52.95741
H         38.34058       40.17780       52.95308
H         34.16859       41.20322       53.20064
H         36.55270       38.52675       53.24139
N         39.49807       45.00308       50.24125
C         40.52257       44.27407       49.50146
C         41.48053       43.60088       50.46894
O         41.33815       43.74833       51.67619
C         41.20846       45.17777       48.41604
C         42.02388       46.39097       48.93794
C         40.15058       45.69341       47.43308
C         43.31948       46.02376       49.66115
H         39.77109       45.87363       50.72093
H         40.05444       43.43126       48.95462
H         41.89713       44.55033       47.80964
H         41.39869       47.04867       49.57688
H         42.34344       46.99012       48.05606
H         39.61087       44.83897       46.98472
H         39.42997       46.36534       47.94537
H         40.62418       46.25739       46.60089
H         43.13422       45.50480       50.61743
H         43.95533       45.38992       49.00519
H         43.87969       46.95237       49.89772
N         42.48473       42.82222       49.98738
C         43.42577       42.07958       50.82780
C         44.64758       41.65160       50.01157
O         44.79333       42.11726       48.89742
C         42.69697       40.90416       51.50860
O         42.18034       40.01355       50.55479
H         42.56936       42.75843       48.96485
H         43.82500       42.74854       51.62152
H         41.88719       41.29093       52.17173
H         43.37718       40.34979       52.18613
H         41.20124       40.17427       50.50526
N         45.61930       40.84216       50.51623
C         46.86286       40.56268       49.79238
C         46.65182       39.90168       48.43217
O         47.09473       40.46386       47.44018
C         47.79564       39.70138       50.64650
H         45.50279       40.46118       51.46674
H         47.38460       41.53252       49.62461
H         48.00881       40.21860       51.60616
H         47.33621       38.71470       50.86534
H         48.75851       39.54395       50.11456
N         46.01579       38.70167       48.30757
C         45.86050       38.00295       47.02727
C         45.12611       38.85640       46.01100
O         45.62136       39.04653       44.90909
C         45.10054       36.68572       47.23005
H         45.63793       38.26299       49.16149
H         46.86517       37.74494       46.62350
H         45.00731       36.14567       46.26271
H         45.65288       36.03393       47.93949
H         44.08211       36.86968       47.63433
N         43.94398       39.43061       46.34859
C         43.14690       40.28792       45.47517
C         43.96827       41.42884       44.89055
O         43.91463       41.63908       43.68694
C         41.94797       40.79810       46.29707
C         40.99424       41.70913       45.52299
C         39.73707       41.97793       46.30905
O         39.53631       41.42706       47.52296
O         38.86897       42.68235       45.82908
H         43.60608       39.26592       47.31061
H         42.74515       39.68592       44.62881
H         42.30272       41.33745       47.19943
H         41.38968       39.89675       46.63250
H         40.71715       41.22108       44.56919
H         41.50118       42.67098       45.29151
N         44.77803       42.17683       45.68186
C         45.59644       43.27533       45.21405
H         46.66738       43.03153       45.38058
H         45.44294       43.48886       44.13638
H         45.34615       44.18753       45.79550
H         44.84567       41.92954       46.66672
Ca        35.89572       42.41311       47.25877
O         37.20919       39.63294       48.43297
H         37.94810       39.00496       48.63238
H         36.44256       39.04955       48.20447

Ca 1.0



