%chk=holoCaM.loop4.water3.frame175.chk
%nprocshared=20
%mem=10GB
%nosave
#b3lyp/svp scf=(tight,noincore,xqc) Test 
#IOP(5/87=12) Density=Current Pop=(MK,readradii) iop(6/33=2) iop(6/42=6)

holoCaM.loop4.water3.frame175 

   -3  1 
C         30.52645       90.97776       86.41164
C         29.84026       92.16240       87.02709
O         28.65964       92.09634       87.32719
H         31.37382       90.67158       87.06524
H         29.83368       90.11662       86.31334
H         30.92762       91.24873       85.41359
N         30.56457       93.27625       87.29523
C         30.05551       94.41977       88.04039
C         29.03316       95.24080       87.24524
O         29.37696       95.71946       86.17419
C         31.27291       95.29099       88.43693
C         30.95310       96.32619       89.45051
O         29.71327       96.41645       89.92932
O         31.80998       97.10926       89.82509
H         31.56711       93.25387       87.04805
H         29.59419       94.03504       88.97714
H         31.69750       95.77253       87.53197
H         32.05323       94.64995       88.89937
N         27.77197       95.47369       87.73187
C         26.76277       96.29906       87.05357
C         26.34655       97.53128       87.88575
O         25.54324       98.30878       87.38888
C         25.52589       95.42903       86.62882
C         24.64825       94.97538       87.82966
C         26.00678       94.23728       85.77474
C         23.43836       94.11474       87.43769
H         27.51712       95.04713       88.62467
H         27.19532       96.70101       86.11217
H         24.87536       96.05612       85.97951
H         24.26000       95.87362       88.35401
H         25.24720       94.41048       88.55284
H         26.61386       94.60075       84.91960
H         26.62580       93.54067       86.37553
H         25.15652       93.66937       85.34671
H         22.79302       94.65386       86.71276
H         23.75349       93.14427       87.00047
H         22.83672       93.87892       88.34164
N         26.81729       97.75921       89.15491
C         26.38606       98.86970       90.01634
C         27.53321       99.59564       90.75605
O         27.23549      100.50967       91.51284
C         25.30326       98.37291       91.01114
C         25.68454       97.24475       91.93539
O         26.86368       96.62513       91.83785
O         24.87800       96.84068       92.75420
H         27.43877       97.06335       89.56765
H         25.87711       99.64624       89.40203
H         24.42409       98.02883       90.42402
H         24.97443       99.23268       91.63372
N         28.85157       99.29131       90.57148
C         29.96347      100.00778       91.19724
C         30.12548       99.87794       92.71246
O         31.02495      100.52913       93.22596
H         29.09728       98.59266       89.86974
H         29.86287      101.08672       90.94722
H         30.91515       99.65311       90.74463
N         29.31557       99.11572       93.50581
C         29.40681       99.14687       94.97580
C         30.66961       98.51730       95.59380
O         30.85918       98.67602       96.79179
C         28.13877       98.53446       95.61427
C         27.90203       97.07832       95.31945
O         28.64407       96.44729       94.58663
O         26.83580       96.46709       95.86670
H         28.54886       98.59112       93.06277
H         29.40470      100.21950       95.27268
H         27.25152       99.09737       95.25338
H         28.19652       98.65883       96.71674
N         31.54553       97.76818       94.87088
C         32.76578       97.16416       95.40561
C         32.71967       95.63900       95.50827
O         33.77083       95.04899       95.71308
H         31.34496       97.63088       93.88332
H         33.02036       97.55720       96.41356
H         33.59912       97.45846       94.73032
N         31.54364       94.94316       95.48026
C         31.42523       93.49044       95.66364
C         30.50803       92.85980       94.60954
O         29.95435       93.56587       93.78119
C         30.87793       93.21675       97.08795
C         31.98974       93.33115       98.14648
C         31.45724       93.11512       99.53863
N         30.62167       94.01775      100.10139
O         31.79942       92.12799      100.17326
H         30.67086       95.47748       95.41819
H         32.41209       92.98649       95.55840
H         30.49219       92.17983       97.17470
H         30.02916       93.90589       97.29528
H         32.49628       94.31724       98.11080
H         32.74540       92.54340       97.92250
H         30.34690       94.86847       99.58934
H         30.26779       93.87797      101.05940
N         30.29997       91.50548       94.60883
C         29.42872       90.78457       93.67726
C         28.22208       90.23190       94.42454
O         28.38046       89.58505       95.45026
C         30.22471       89.67005       92.92567
C         29.30586       88.64377       92.23259
C         31.12137       90.30182       91.85149
H         30.77460       90.93871       95.32841
H         29.02837       91.46872       92.90894
H         30.85252       89.10632       93.64996
H         29.90932       87.89734       91.67246
H         28.71250       88.08087       92.98353
H         28.61228       89.14205       91.52599
H         30.48191       90.79637       91.08784
H         31.81401       91.04688       92.29231
H         31.72071       89.52725       91.32795
N         26.97233       90.42703       93.90110
C         25.72392       89.96127       94.50382
C         25.07421       88.90042       93.62590
O         25.65844       88.55185       92.60952
C         24.77432       91.15498       94.79497
C         24.03572       91.77257       93.61810
N         24.66847       92.39509       92.60052
O         22.81469       91.73778       93.61385
H         26.91534       90.89502       92.99153
H         25.94951       89.48914       95.48400
H         25.33848       91.94281       95.33734
H         23.99412       90.78042       95.49172
H         25.68436       92.48951       92.57769
H         24.12697       92.81674       91.83157
N         23.89388       88.29623       93.97071
C         23.32445       87.22822       93.14842
C         22.82007       87.72034       91.79282
O         22.65229       86.89959       90.90086
C         22.21233       86.42997       93.86537
C         20.86283       87.11548       93.88695
C         19.93000       86.81493       92.87681
C         20.51101       88.03225       94.89008
C         18.67556       87.42238       92.86215
C         19.24438       88.63277       94.88009
C         18.32555       88.33258       93.86623
O         17.11235       88.92077       93.86563
H         23.44449       88.54877       94.86175
H         24.15508       86.50421       92.98260
H         22.52115       86.10516       94.88263
H         22.08933       85.48769       93.28659
H         20.17884       86.11387       92.08949
H         21.20495       88.27243       95.68453
H         17.97776       87.18181       92.06967
H         18.97442       89.33126       95.66170
H         16.45402       88.73709       93.17945
N         22.47257       89.02658       91.59165
C         21.98614       89.53338       90.30722
C         23.13812       89.73189       89.31990
O         22.88526       89.95796       88.14521
C         21.19446       90.84372       90.49488
C         20.00178       90.64615       91.45048
C         19.21154       91.91061       91.60702
O         18.02949       91.93697       91.30379
O         19.79673       93.01695       92.10440
H         22.52546       89.67067       92.38745
H         21.27655       88.78491       89.88666
H         20.80628       91.17563       89.50599
H         21.86843       91.63397       90.89212
H         20.35462       90.34229       92.45793
H         19.34275       89.84092       91.05702
N         24.43077       89.61976       89.73792
C         25.61371       89.62511       88.88789
C         26.23256       88.23330       88.86107
O         27.20728       88.04063       88.14743
C         26.64959       90.59392       89.48876
C         26.16297       92.03895       89.47490
C         27.01642       92.93497       90.32820
O         26.64570       94.07199       90.55858
O         28.13912       92.48247       90.91248
H         24.60733       89.47219       90.73358
H         25.35616       89.90346       87.84164
H         27.62442       90.52820       88.96237
H         26.81497       90.28132       90.54290
H         25.13710       92.08011       89.88614
H         26.13860       92.40141       88.42791
N         25.73429       87.21352       89.61804
C         26.30155       85.88980       89.63019
H         27.35669       85.93698       89.96898
H         25.72869       85.25211       90.33946
H         26.23618       85.44485       88.61690
H         24.93030       87.36023       90.23050
Ca        28.78993       95.54084       91.75212
O         26.86085       94.27734       93.88586
H         26.49013       94.11308       94.78776
H         26.09187       94.62327       93.36906
O         30.99599       93.37203       91.12125
H         31.11105       92.83700       90.29875
H         31.92061       93.52705       91.43532
O         31.44116       95.68526       92.55144
H         31.12368       96.51454       92.11826
H         32.42271       95.78564       92.59134

Ca 1.0



