%chk=holoCaM-CaMKII.loop2.water2.frame430.chk
%nprocshared=20
%mem=10GB
%nosave
#b3lyp/svp scf=(tight,noincore,xqc) Test 
#IOP(5/87=12) Density=Current Pop=(MK,readradii) iop(6/33=2) iop(6/42=6)

holoCaM-CaMKII.loop2.water2.frame430 

   -2  1 
C         94.74637       64.23837       16.58305
C         96.21071       64.52745       16.39544
O         96.56977       65.67805       16.20652
H         94.17291       64.54219       15.68475
H         94.56643       63.15796       16.77239
H         94.37173       64.80233       17.46485
N         97.12161       63.52259       16.48444
C         98.56462       63.73149       16.47800
C         99.11771       64.22001       15.14451
O         98.88533       63.58403       14.12627
C         99.27171       62.41301       16.84267
C        100.73562       62.64486       17.04233
O        101.13125       63.52510       17.97398
O        101.56373       62.06459       16.35952
H         96.76848       62.56895       16.66027
H         98.80319       64.46195       17.28465
H         99.09741       61.64958       16.05322
H         98.86352       62.02756       17.80043
N         99.97305       65.28311       15.12056
C        100.71786       65.72083       13.94344
C        102.23250       65.62874       14.15638
O        102.96231       66.01238       13.25176
C        100.35758       67.18362       13.65633
H        100.15038       65.78297       16.00159
H        100.45548       65.10659       13.05569
H        100.64552       67.82708       14.51813
H        100.89191       67.55062       12.75325
H         99.26670       67.28542       13.48467
N        102.77703       65.21063       15.33975
C        104.18407       65.38479       15.67414
C        104.83649       64.14225       16.28326
O        105.82863       63.68685       15.73015
C        104.34019       66.66476       16.54067
C        103.46562       66.84956       17.77226
O        103.58637       67.87816       18.41514
O        102.54681       65.94177       18.16653
H        102.15844       64.90080       16.09119
H        104.77429       65.60976       14.75567
H        104.10028       67.52567       15.87798
H        105.40988       66.76265       16.83129
N        104.38589       63.57348       17.43677
C        105.06446       62.49445       18.13765
C        105.54109       62.93335       19.51563
O        106.13220       62.11429       20.20504
H        103.53951       63.93057       17.87607
H        105.95393       62.14088       17.57395
H        104.36437       61.63751       18.24287
N        105.35376       64.20891       19.97947
C        105.87460       64.70080       21.25585
C        105.12626       64.16677       22.49068
O        105.40397       64.63975       23.58392
C        105.98145       66.25493       21.21104
C        104.69351       67.02778       21.21694
N        104.70006       68.36871       21.04653
O        103.63773       66.45553       21.37904
H        104.90285       64.89974       19.36576
H        106.93624       64.38259       21.33725
H        106.52889       66.51909       20.27882
H        106.58315       66.61591       22.07075
H        105.57977       68.87814       20.88417
H        103.81616       68.89584       21.05323
N        104.21669       63.14718       22.41112
C        103.54298       62.55886       23.55955
C        102.38470       63.37375       24.09857
O        101.77094       62.91143       25.05025
H        104.04953       62.68276       21.51581
H        104.28528       62.34164       24.35866
H        103.10355       61.58596       23.24657
N        102.01178       64.57153       23.55819
C        100.89644       65.36598       24.05808
C         99.88846       65.69546       22.91559
O        100.38627       66.71639       22.09269
C        101.42898       66.64851       24.75890
C        102.19376       66.31001       26.03833
O        102.28515       67.36654       23.90391
H        102.54568       64.95060       22.77481
H        100.33001       64.78014       24.81691
H        100.57449       67.28650       25.08306
H        101.78467       68.15265       23.56301
H        101.52882       65.77405       26.74947
H        103.07811       65.67635       25.81854
H        102.53974       67.24729       26.52367
N         98.57675       66.06264       23.49520
C         97.72095       66.97742       22.71974
C         98.22331       68.42408       22.82350
O         98.38141       68.93601       23.92223
C         96.24849       66.83336       23.21756
C         95.77217       65.36853       22.99679
C         95.32392       67.82934       22.49273
C         94.33088       65.09166       23.43102
H         98.62437       66.37813       24.49156
H         97.71784       66.66527       21.65471
H         96.20508       67.06724       24.30538
H         96.42652       64.68432       23.57903
H         95.86419       65.10101       21.92119
H         95.64867       68.86944       22.68682
H         95.32046       67.64192       21.39875
H         94.28831       67.76846       22.88073
H         94.18935       65.34236       24.50273
H         93.60750       65.66229       22.81357
H         94.10513       64.01438       23.28170
N         98.41939       69.15049       21.68408
C         98.77727       70.56955       21.63750
C         97.52386       71.39814       21.39714
O         96.45451       70.83048       21.30669
C         99.76271       70.82275       20.47348
C        101.07408       70.12021       20.63144
O        101.12582       68.90383       20.66038
O        102.21150       70.83747       20.69155
H         98.19238       68.70225       20.79152
H         99.21909       70.90033       22.60242
H         99.97908       71.90779       20.39762
H         99.29815       70.50111       19.51435
N         97.57563       72.76073       21.30253
C         96.38539       73.57252       21.05208
C         95.76408       73.26135       19.68233
O         94.58627       72.92264       19.68240
C         96.68958       75.07906       21.22282
C         95.46113       75.92470       20.99346
C         94.40569       75.91845       21.92101
C         95.36064       76.72479       19.84210
C         93.27281       76.70895       21.70297
C         94.22064       77.50213       19.62144
C         93.17937       77.49799       20.55303
H         98.47963       73.23458       21.43425
H         95.63622       73.33264       21.84070
H         97.48515       75.40202       20.54163
H         97.08361       75.28117       22.24210
H         94.46580       75.31268       22.81664
H         96.15722       76.73520       19.10815
H         92.46694       76.70994       22.42537
H         94.14534       78.10786       18.72772
H         92.30022       78.10576       20.38319
N         96.43277       73.33435       18.48055
C         95.83067       73.00474       17.18756
C         95.12306       71.66300       17.18664
O         94.00391       71.55276       16.71096
C         97.03733       72.92218       16.23461
C         97.96130       73.95437       16.81644
C         97.83826       73.67127       18.30936
H         95.14373       73.82559       16.88194
H         97.56897       71.94932       16.35358
H         96.78876       73.04655       15.15927
H         99.00280       73.93873       16.42958
H         97.51516       74.95391       16.60677
H         98.45306       72.80282       18.62677
H         98.17286       74.58534       18.81303
N         95.76476       70.59591       17.72579
C         95.26257       69.22848       17.74966
C         93.95259       69.14973       18.51900
O         93.00179       68.56841       18.01579
C         96.33727       68.30716       18.37287
C         97.66282       68.34915       17.56270
C         98.76379       67.52233       18.15533
O         99.87269       67.55155       17.64848
O         98.56132       66.77490       19.25183
H         96.67570       70.78902       18.16258
H         95.09565       68.86705       16.71069
H         95.96019       67.26177       18.40544
H         96.51847       68.64046       19.41203
H         98.06544       69.37730       17.50796
H         97.47889       68.01348       16.52150
N         93.82532       69.75858       19.72941
C         92.61824       69.76206       20.52849
H         91.81128       69.14866       20.07952
H         92.84763       69.36478       21.53915
H         92.25569       70.80671       20.63885
H         94.61790       70.28722       20.09372
Ca       101.39707       66.02665       20.13918
O        101.70093       63.09346       20.64644
H        102.46185       63.21152       20.02381
H        101.67549       62.12059       20.82344
O         98.95027       64.07147       20.09991
H         98.70514       63.11917       19.99596
H         98.11076       64.51140       20.38319

Ca 1.0



