%chk=holoCaM.loop1.water2.frame245.chk
%nprocshared=20
%mem=10GB
%nosave
#b3lyp/svp scf=(tight,noincore,xqc) Test 
#IOP(5/87=12) Density=Current Pop=(MK,readradii) iop(6/33=2) iop(6/42=6)

holoCaM.loop1.water2.frame245 

   0  1 
C         59.79520      103.68113       53.37701
C         59.96637      104.85129       52.46038
O         61.09927      105.20939       52.16918
H         58.72234      103.47963       53.57870
H         60.25389      102.78042       52.92087
H         60.29839      103.90377       54.34175
N         58.88099      105.51141       51.96825
C         59.01064      106.69196       51.13008
C         59.70337      107.78555       51.93366
O         59.20019      108.17390       52.97873
C         57.62971      107.13422       50.61538
C         57.73323      108.31795       49.70726
O         57.08630      109.45276       50.02455
O         58.39172      108.25534       48.68062
H         57.93741      105.16918       52.20889
H         59.61426      106.42063       50.23525
H         56.96336      107.38017       51.47004
H         57.16818      106.30036       50.04076
N         60.89090      108.29213       51.50133
C         61.70665      109.25531       52.24148
C         61.76871      110.60701       51.54778
O         62.29394      111.53682       52.14418
C         63.14460      108.68435       52.44468
C         63.91875      108.53002       51.10966
C         65.24688      107.76960       51.18915
C         66.35693      108.51121       51.93537
N         67.60164      107.74143       51.87710
H         61.22734      107.95691       50.59721
H         61.24641      109.42635       53.23922
H         63.05317      107.69142       52.93712
H         63.72364      109.35106       53.11878
H         64.08065      109.52141       50.63315
H         63.31740      107.92594       50.42642
H         65.59475      107.61280       50.14280
H         65.07581      106.77023       51.64506
H         66.06612      108.66854       52.99563
H         66.52096      109.50284       51.45742
H         68.35832      108.26522       52.37189
H         67.47178      106.81144       52.33825
H         67.89076      107.59647       50.88130
N         61.30589      110.78194       50.27584
C         61.40000      112.04037       49.54701
C         60.05517      112.47400       48.95610
O         60.02977      113.41592       48.17715
C         62.58634      111.98382       48.55812
C         62.58208      110.88249       47.53937
O         63.54353      110.76325       46.79694
O         61.56162      110.01391       47.44270
H         60.92353      109.97756       49.76410
H         61.68554      112.86774       50.23258
H         63.50704      111.84651       49.16970
H         62.67696      112.95861       48.03327
N         58.88357      111.94815       49.42094
C         57.57003      112.50888       49.12991
C         57.03399      112.27620       47.73469
O         56.28107      113.11835       47.26669
H         58.91533      111.21145       50.13924
H         57.56679      113.59524       49.36750
H         56.83183      112.05222       49.82270
N         57.26805      111.11670       47.05984
C         56.65585      110.79515       45.76984
C         55.74483      109.56511       45.85178
O         55.22627      109.16074       44.82005
C         57.74286      110.67997       44.67957
C         58.84864      109.72046       45.00772
O         58.58742      108.42445       45.22115
O         60.00051      110.11645       45.07006
H         57.89982      110.42199       47.48109
H         55.98773      111.61609       45.42747
H         58.19256      111.68755       44.53765
H         57.27356      110.38923       43.71418
N         55.42363      108.97470       47.04305
C         54.45463      107.89172       47.16736
C         54.91022      106.55202       46.62177
O         54.10549      105.63015       46.65008
H         55.79284      109.36451       47.91652
H         53.51262      108.20087       46.66193
H         54.22035      107.73625       48.24241
N         56.15349      106.35572       46.09903
C         56.59706      105.09207       45.51425
C         57.93792      104.64025       46.08278
O         58.52624      105.34192       46.89648
C         56.63413      105.21958       43.97117
C         55.21888      105.35045       43.38607
O         57.44799      106.28940       43.56138
H         56.80489      107.14515       46.07247
H         55.87884      104.27824       45.75945
H         57.04966      104.28972       43.53228
H         56.93885      107.13244       43.68990
H         54.71023      106.26470       43.75771
H         55.27401      105.39768       42.27883
H         54.61035      104.46467       43.66994
N         58.44595      103.42517       45.71850
C         59.64949      102.81515       46.27457
C         60.66108      102.52505       45.16233
O         60.31263      101.88060       44.18198
C         59.24634      101.54119       47.07438
C         58.25830      101.87260       48.23485
C         60.46506      100.77785       47.62299
C         58.80128      102.81036       49.32960
H         57.91030      102.85331       45.04725
H         60.12563      103.47598       47.00297
H         58.72276      100.84982       46.37781
H         57.95397      100.92219       48.72373
H         57.33859      102.33190       47.81475
H         61.05350      101.40181       48.31980
H         60.13285       99.86685       48.16444
H         61.12839      100.44958       46.79839
H         59.06613      103.80841       48.92983
H         58.01805      102.96610       50.10103
H         59.68812      102.37915       49.83616
N         61.96232      102.91918       45.30184
C         63.04553      102.62064       44.36295
C         63.88617      101.48367       44.91850
O         63.57940      100.98824       45.98829
C         63.95287      103.87622       44.17664
C         63.20436      105.04378       43.54397
O         64.47150      104.27101       45.42349
H         62.23459      103.36876       46.18404
H         62.64474      102.28866       43.38000
H         64.79623      103.61864       43.49850
H         65.12690      104.99881       45.26178
H         63.90381      105.89522       43.39550
H         62.79564      104.75353       42.55441
H         62.39182      105.36862       44.21869
N         64.98773      101.02815       44.26349
C         65.91141      100.06273       44.86039
C         66.49170      100.62944       46.14766
O         66.58561       99.91178       47.13279
C         67.07350       99.71510       43.89789
C         66.57445       98.97025       42.65620
O         67.75941      100.88154       43.51692
H         65.21279      101.42967       43.34088
H         65.38054       99.11136       45.09314
H         67.76634       99.03230       44.44645
H         68.65603      100.59935       43.19748
H         66.05488       98.03571       42.95808
H         65.87679       99.59602       42.06330
H         67.43738       98.69630       42.01345
N         66.87961      101.93520       46.19577
C         67.50895      102.56515       47.35232
C         66.63171      102.40502       48.58614
O         67.08473      101.87481       49.59075
C         67.78146      104.08709       47.12260
C         68.32879      104.51270       45.74094
C         69.58978      103.77965       45.27160
C         69.90888      104.19121       43.82252
N         71.10208      103.51393       43.32092
H         66.71389      102.49205       45.35259
H         68.49041      102.06704       47.51799
H         68.46985      104.43358       47.92468
H         66.83560      104.65948       47.23584
H         68.52546      105.60711       45.76192
H         67.53485      104.37123       44.98121
H         69.41764      102.68261       45.28650
H         70.43811      104.02211       45.94682
H         70.05838      105.29223       43.76349
H         69.04520      103.92394       43.17051
H         71.25569      103.79324       42.32448
H         71.93579      103.79540       43.88502
H         70.97349      102.47688       43.36328
N         65.34224      102.84281       48.55198
C         64.40697      102.76665       49.67011
C         64.16568      101.32191       50.08644
O         64.41234      100.99063       51.23727
C         63.07385      103.45854       49.28913
C         63.26049      104.97406       49.05915
C         61.94330      105.66800       48.72061
O         61.45765      105.24241       47.49068
O         62.12726      107.04492       48.60244
H         65.01195      103.25583       47.66933
H         64.82842      103.31534       50.54173
H         62.33814      103.31868       50.11148
H         62.66488      102.98639       48.37492
H         63.99170      105.17771       48.24913
H         63.64469      105.41682       50.00112
N         63.69064      100.40938       49.19649
C         63.43332       99.01750       49.50710
H         62.37144       98.78247       49.28227
H         64.07820       98.37304       48.87213
H         63.62986       98.77630       50.57188
H         63.50518      100.71282       48.24068
Ca        61.03557      107.29397       46.63769
O         63.16115      108.14068       44.78611
H         63.20394      108.36981       43.82477
H         62.74686      108.93412       45.20512
O         60.22734      106.58454       43.96275
H         60.77238      106.87798       43.19094
H         59.97889      105.64795       43.76046

Ca 1.0



