%chk=holoCaM-CaMKII.loop2.water2.frame216.chk
%nprocshared=20
%mem=10GB
%nosave
#b3lyp/svp scf=(tight,noincore,xqc) Test 
#IOP(5/87=12) Density=Current Pop=(MK,readradii) iop(6/33=2) iop(6/42=6)

holoCaM-CaMKII.loop2.water2.frame216 

   -2  1 
C         19.64392       42.02294       56.99124
C         19.26143       42.10926       58.44243
O         19.96191       42.74074       59.21863
H         20.58091       42.58220       56.78642
H         19.77935       40.96182       56.69628
H         18.83179       42.46385       56.37175
N         18.11092       41.52120       58.86226
C         17.57474       41.64777       60.21387
C         18.40777       40.88517       61.24788
O         18.68971       39.71553       61.02859
C         16.12616       41.11404       60.22647
C         15.36422       41.53760       61.44736
O         14.21416       41.16312       61.60494
O         15.90767       42.39500       62.32870
H         17.54587       41.03032       58.15065
H         17.52551       42.73387       60.45365
H         16.13570       40.00641       60.13287
H         15.56688       41.53238       59.36200
N         18.77952       41.47370       62.42502
C         19.56185       40.81451       63.47180
C         18.82805       40.71334       64.81879
O         19.43778       40.21708       65.75678
C         20.86444       41.60136       63.66772
H         18.49307       42.44307       62.59283
H         19.83486       39.78178       63.16414
H         20.64687       42.63608       64.01161
H         21.51189       41.10612       64.42372
H         21.42887       41.65310       62.71286
N         17.53981       41.13755       65.00653
C         16.88502       41.13662       66.32664
C         15.34452       41.24499       66.31500
O         14.77764       41.27234       67.39933
C         17.49227       42.26402       67.19432
C         17.28276       43.61915       66.59338
O         16.59740       43.76274       65.44642
O         17.78245       44.60021       67.12082
H         17.04933       41.51933       64.20079
H         17.09373       40.16565       66.82603
H         18.58724       42.10572       67.28904
H         17.06073       42.25258       68.21781
N         14.58942       41.24163       65.17581
C         13.13249       41.19484       65.17991
C         12.40706       42.45559       65.62307
O         11.18525       42.40545       65.65685
H         15.03350       41.14417       64.26107
H         12.81002       40.34129       65.81405
H         12.78549       40.98761       64.14384
N         13.04076       43.61893       65.95471
C         12.31100       44.82319       66.37444
C         11.48417       45.49398       65.25563
O         10.87122       46.51714       65.52824
C         13.27103       45.83538       67.04402
C         14.29630       46.45852       66.13951
N         15.16358       47.36488       66.63989
O         14.34748       46.16299       64.95807
H         14.06902       43.63921       65.95586
H         11.61003       44.52876       67.18711
H         13.80154       45.32375       67.87698
H         12.66874       46.65968       67.48434
H         15.14070       47.62527       67.63653
H         15.85367       47.81322       66.02636
N         11.38207       44.96821       63.99820
C         10.53645       45.51272       62.94477
C         11.12146       46.67702       62.16306
O         10.47223       47.08064       61.20851
H         11.82411       44.06960       63.78899
H          9.53238       45.76543       63.35164
H         10.38436       44.70796       62.19282
N         12.31132       47.27119       62.47484
C         12.87791       48.37942       61.70012
C         14.32049       48.11976       61.28008
O         14.92561       47.14402       61.69947
C         12.80634       49.68682       62.52957
C         11.35717       50.13439       62.72148
O         13.40571       49.51582       63.78940
H         12.81730       46.96154       63.30992
H         12.30511       48.53153       60.75864
H         13.30426       50.52391       61.98994
H         14.38569       49.46170       63.64286
H         10.77157       49.37105       63.27413
H         11.33125       51.08728       63.29080
H         10.88213       50.30910       61.73121
N         14.93427       49.01429       60.45012
C         16.34728       48.98147       60.09047
C         17.11944       49.74154       61.15598
O         16.72880       50.84701       61.50433
C         16.57637       49.62507       58.68507
C         15.77238       48.86077       57.59982
C         18.08242       49.64121       58.33516
C         15.85123       49.50205       56.21056
H         14.38827       49.82680       60.12559
H         16.71014       47.93140       60.02480
H         16.21676       50.67796       58.71696
H         14.69880       48.84695       57.88278
H         16.12517       47.80793       57.53491
H         18.27363       50.15049       57.37081
H         18.65658       50.21360       59.08854
H         18.48775       48.60754       58.28626
H         15.20868       48.93484       55.50508
H         15.49193       50.55234       56.25098
H         16.88218       49.48107       55.80415
N         18.27122       49.22587       61.66446
C         19.09000       49.89282       62.67520
C         20.35472       50.40964       62.04477
O         20.53402       50.25326       60.84966
C         19.46549       48.89076       63.76958
C         18.27242       48.32844       64.44556
O         17.34305       47.69952       63.70977
O         18.21853       48.29990       65.66457
H         18.61708       48.33530       61.28123
H         18.55616       50.76119       63.11919
H         20.13181       49.34236       64.53479
H         20.01124       48.04150       63.29977
N         21.28001       51.07259       62.79095
C         22.48516       51.61302       62.19154
C         23.38342       50.50811       61.63379
O         23.74432       50.61389       60.46918
C         23.26608       52.51396       63.17536
C         24.24855       53.36166       62.41370
C         25.63069       53.14189       62.51264
C         23.76864       54.38548       61.57788
C         26.51739       53.93168       61.77329
C         24.65630       55.17702       60.85089
C         26.03052       54.94864       60.94500
H         21.09850       51.23842       63.79188
H         22.14947       52.27424       61.36146
H         23.78745       51.91855       63.94334
H         22.57877       53.20228       63.71367
H         26.01858       52.35223       63.14439
H         22.70427       54.57303       61.49568
H         27.58214       53.75400       61.83988
H         24.27522       55.96466       60.21398
H         26.71646       55.56018       60.37499
N         23.79779       49.42242       62.37104
C         24.69289       48.38247       61.86682
C         24.18627       47.74937       60.58721
O         24.93824       47.58437       59.63849
C         24.69514       47.32198       62.98392
C         24.45533       48.15713       64.21657
C         23.37389       49.10821       63.72610
H         25.71242       48.81047       61.74161
H         23.80251       46.65961       62.89782
H         25.59805       46.67512       63.00451
H         24.18304       47.58199       65.12758
H         25.37619       48.74904       64.41950
H         22.38910       48.59503       63.67350
H         23.30916       49.95460       64.42520
N         22.88161       47.37535       60.52435
C         22.24922       46.69878       59.39992
C         22.36613       47.54823       58.14905
O         22.87880       47.06735       57.14838
C         20.76522       46.41704       59.73898
C         20.61906       45.52382       60.99540
C         19.20046       45.35534       61.44598
O         18.96371       44.72929       62.60940
O         18.26783       45.82256       60.81453
H         22.30264       47.61220       61.34036
H         22.74662       45.71812       59.22591
H         20.26608       45.91803       58.87942
H         20.25617       47.38672       59.92332
H         21.13806       45.96864       61.86379
H         21.07511       44.52793       60.81465
N         21.94251       48.84147       58.15716
C         22.04972       49.74263       57.03024
H         22.70065       50.59824       57.31097
H         22.48004       49.25054       56.13413
H         21.04182       50.13178       56.77614
H         21.54671       49.22330       59.02034
Ca        16.99529       45.68173       64.47202
O         14.03462       44.44431       62.57787
H         13.93537       43.65219       63.16326
H         13.40672       44.28077       61.83001
O         15.63858       44.74369       60.12506
H         15.44921       44.05228       59.44375
H         15.89017       45.54458       59.60124

Ca 1.0



