%chk=holoCaM.loop3.water2.frame429.chk
%nprocshared=20
%mem=10GB
%nosave
#b3lyp/svp scf=(tight,noincore,xqc) Test 
#IOP(5/87=12) Density=Current Pop=(MK,readradii) iop(6/33=2) iop(6/42=6)

holoCaM.loop3.water2.frame429 

   0  1 
C        101.12657       -8.87791       55.98061
C        101.82554       -9.96890       56.71977
O        101.40952      -11.11698       56.65749
H        100.17918       -8.67040       56.51925
H        101.72655       -7.94283       55.99344
H        100.91871       -9.16590       54.93421
N        102.88527       -9.65361       57.49837
C        103.47912      -10.59650       58.41610
C        102.62115      -10.69779       59.67576
O        102.75617       -9.88695       60.58804
C        104.87354      -10.11065       58.71856
C        105.62313      -11.08198       59.51603
O        105.32937      -12.26170       59.56899
O        106.66104      -10.62433       60.18201
H        103.24468       -8.68622       57.47319
H        103.55677      -11.58909       57.92929
H        104.79915       -9.13547       59.24768
H        105.46289       -9.94072       57.80246
N        101.64853      -11.64704       59.73404
C        100.59054      -11.66441       60.74768
C        100.97705      -12.45596       61.98596
O        100.37507      -12.30543       63.03981
C         99.30131      -12.16823       60.09038
C         98.06170      -11.71658       60.86958
C         96.74766      -12.16326       60.21231
C         95.48657      -11.75018       61.02804
N         95.67370      -11.86414       62.47629
H        101.57676      -12.28460       58.92958
H        100.43849      -10.61142       61.06148
H         99.34414      -13.27739       59.95678
H         99.26691      -11.71686       59.07883
H         98.05340      -10.60970       60.96181
H         98.13054      -12.16358       61.88015
H         96.79957      -13.26515       60.11064
H         96.66184      -11.74003       59.18350
H         94.61178      -12.37142       60.72204
H         95.21999      -10.69469       60.80788
H         96.42101      -11.20531       62.79502
H         94.79797      -11.55861       62.95556
H         95.90993      -12.84614       62.74495
N        102.05702      -13.26093       61.91345
C        102.80278      -13.76329       63.04557
C        103.87617      -12.73586       63.46803
O        104.43145      -12.85396       64.55108
C        103.36798      -15.14588       62.67381
C        104.24660      -15.14201       61.43399
O        103.77106      -14.99442       60.31677
O        105.56183      -15.36787       61.54997
H        102.48871      -13.33922       60.99928
H        102.13103      -13.88256       63.92240
H        102.53013      -15.85519       62.48651
H        103.93219      -15.51032       63.55025
N        104.19285      -11.68783       62.65709
C        105.08972      -10.58188       62.95818
C        106.47520      -11.03522       63.33021
O        107.06846      -10.47660       64.24330
H        103.78956      -11.67507       61.72255
H        104.66052       -9.88590       63.70991
H        105.18196       -9.98791       62.02726
N        107.06615      -12.02765       62.61139
C        108.41734      -12.52177       62.85013
C        109.48356      -11.78693       62.02543
O        110.62081      -12.23087       61.98366
C        108.46476      -14.04907       62.64848
C        108.41826      -14.55077       61.23364
N        108.91960      -15.77065       60.95309
O        107.93985      -13.87656       60.33748
H        106.50048      -12.47554       61.87852
H        108.66497      -12.38811       63.91877
H        107.64424      -14.53763       63.20706
H        109.41967      -14.39707       63.09485
H        109.32769      -16.38271       61.67097
H        108.93488      -16.10277       59.99712
N        109.18294      -10.63439       61.36917
C        110.08627       -9.86842       60.53034
C        110.06785      -10.31448       59.07406
O        110.74735       -9.67539       58.28459
H        108.27280      -10.22069       61.54054
H        111.12758       -9.92988       60.89914
H        109.81232       -8.78894       60.62601
N        109.39088      -11.43111       58.64952
C        109.49107      -11.95129       57.29063
C        108.08125      -12.23959       56.67148
O        107.30376      -13.14565       57.42452
C        110.47710      -13.13933       57.24525
C        111.77417      -12.89605       57.99411
C        111.91639      -13.25444       59.34969
C        112.86731      -12.33340       57.31994
C        113.15599      -13.10093       59.99054
C        114.09339      -12.17094       57.96199
C        114.24731      -12.57515       59.29593
O        115.42585      -12.44001       59.93435
H        108.87189      -11.99546       59.32282
H        109.95180      -11.20161       56.61544
H        110.75671      -13.33128       56.18246
H        110.00126      -14.06086       57.61119
H        111.07213      -13.65418       59.90090
H        112.77178      -12.02121       56.28994
H        113.28661      -13.37670       61.03052
H        114.91473      -11.73578       57.40803
H        116.16442      -11.94883       59.55063
N        108.26627      -12.74290       55.32153
C        107.07157      -13.24764       54.65621
C        107.56337      -14.15345       53.55378
O        108.16411      -13.69997       52.58979
C        106.03586      -12.16032       54.22614
C        106.68648      -10.97329       53.49674
C        105.23589      -11.62595       55.41711
C        105.66697       -9.97770       52.93409
H        108.97062      -12.25566       54.71756
H        106.51751      -13.91819       55.34220
H        105.29873      -12.67290       53.57021
H        107.29907      -11.36462       52.66709
H        107.34902      -10.43652       54.21434
H        105.00773      -12.41367       56.16479
H        105.77943      -10.79233       55.89621
H        104.27670      -11.22771       55.03530
H        105.15202       -9.40094       53.73377
H        106.17392       -9.23839       52.28029
H        104.91368      -10.53417       52.34283
N        107.40341      -15.49711       53.70357
C        107.79203      -16.49052       52.72213
C        106.90172      -16.38044       51.51127
O        105.99004      -15.59028       51.54847
C        107.73781      -17.89822       53.35054
O        106.42171      -18.29156       53.65999
H        107.00581      -15.83396       54.57559
H        108.83901      -16.30490       52.43141
H        108.38193      -17.88065       54.26390
H        108.17471      -18.64176       52.65601
H        106.34999      -18.37371       54.64742
N        107.12809      -17.11711       50.39389
C        106.28485      -17.08835       49.18763
C        104.85631      -17.58966       49.42881
O        103.92879      -17.07291       48.81810
C        106.96095      -17.92436       48.11136
H        107.98067      -17.69438       50.39893
H        106.21984      -16.04298       48.81448
H        107.98477      -17.51865       47.94263
H        107.03276      -18.97708       48.45885
H        106.39400      -17.88082       47.16009
N        104.61431      -18.53844       50.37566
C        103.28786      -18.90618       50.88905
C        102.56793      -17.68285       51.47638
O        101.35049      -17.60514       51.39622
C        103.45966      -19.96830       51.98190
H        105.44099      -18.97061       50.80957
H        102.64860      -19.35343       50.09323
H        102.47086      -20.27623       52.36785
H        103.96835      -20.88719       51.60440
H        104.06600      -19.53962       52.80788
N        103.27901      -16.67887       52.06459
C        102.69492      -15.43097       52.57137
C        102.61153      -14.33133       51.50568
O        101.64858      -13.58135       51.54974
C        103.43382      -14.91527       53.82356
C        103.48056      -15.96348       54.95931
C        104.42723      -15.62392       56.09983
O        105.49504      -16.20178       56.15857
O        104.07030      -14.91433       57.18495
H        104.27326      -16.86235       52.21367
H        101.64091      -15.63588       52.85408
H        102.92947      -13.97967       54.14955
H        104.47273      -14.68509       53.52164
H        103.87679      -16.88680       54.49146
H        102.47667      -16.23445       55.34417
N        103.50358      -14.22084       50.47682
C        103.29393      -13.38033       49.31651
H        102.46915      -12.65911       49.46364
H        104.22262      -12.83950       49.03593
H        103.02544      -14.04697       48.46610
H        104.30980      -14.82921       50.42312
Ca       105.88714      -14.58688       58.49695
O        108.10468      -16.35927       57.94304
H        108.25334      -17.32646       58.09036
H        109.01343      -16.00377       57.78017
O        104.91366      -17.43171       59.11251
H        104.94976      -18.09622       59.84486
H        104.16420      -17.73246       58.54018

Ca 1.0



