%chk=holoCaM.loop1.water2.frame38.chk
%nprocshared=20
%mem=10GB
%nosave
#b3lyp/svp scf=(tight,noincore,xqc) Test 
#IOP(5/87=12) Density=Current Pop=(MK,readradii) iop(6/33=2) iop(6/42=6)

holoCaM.loop1.water2.frame38 

   0  1 
C        -21.05907        6.90450       15.86978
C        -22.07551        7.39793       16.85588
O        -22.10527        6.89476       17.97020
H        -20.04072        7.05526       16.28672
H        -21.21848        5.82338       15.67812
H        -21.12838        7.45246       14.90671
N        -22.93295        8.40450       16.52420
C        -23.89347        8.95549       17.47088
C        -24.91587        7.89285       17.85455
O        -25.66437        7.44804       16.99477
C        -24.55942       10.20969       16.86439
C        -25.41885       10.99532       17.81475
O        -25.95424       12.01505       17.41892
O        -25.58552       10.62228       19.09608
H        -22.86256        8.82056       15.58233
H        -23.31460        9.28348       18.35435
H        -25.16410        9.91828       15.97788
H        -23.75508       10.89928       16.52564
N        -24.95653        7.39657       19.12611
C        -25.83286        6.29508       19.52315
C        -27.31651        6.65765       19.51763
O        -28.12076        5.75202       19.68892
C        -25.40870        5.73716       20.91254
C        -25.69536        6.69400       22.08808
C        -25.08342        6.18597       23.40655
C        -25.31650        7.14217       24.59434
N        -26.70897        7.15115       25.04656
H        -24.26858        7.75087       19.80341
H        -25.66632        5.47495       18.78862
H        -24.31977        5.51384       20.86727
H        -25.93865        4.77959       21.11209
H        -26.78863        6.78481       22.19336
H        -25.27443        7.69579       21.87264
H        -23.98593        6.10529       23.25871
H        -25.46967        5.17546       23.66008
H        -24.99121        8.17193       24.32406
H        -24.68574        6.80338       25.44488
H        -26.80506        7.81920       25.84548
H        -27.35262        7.45180       24.28960
H        -26.98721        6.19696       25.36957
N        -27.75299        7.95025       19.39869
C        -29.16130        8.33415       19.51994
C        -29.68326        9.15600       18.34830
O        -30.88873        9.35898       18.28384
C        -29.32873        9.21500       20.76746
C        -28.77693        8.57826       22.00965
O        -29.24497        7.52696       22.41527
O        -27.76920        9.17343       22.68739
H        -27.05877        8.69977       19.31864
H        -29.79641        7.42706       19.61919
H        -30.39894        9.46784       20.92578
H        -28.78206       10.15547       20.57182
N        -28.85227        9.75144       17.44872
C        -29.32416       10.65716       16.41790
C        -29.99450       11.89315       16.99254
O        -31.12148       12.17863       16.61493
H        -27.83729        9.60002       17.49948
H        -30.01333       10.12115       15.72949
H        -28.45015       11.00287       15.82363
N        -29.33195       12.69918       17.87371
C        -29.83840       13.99798       18.33266
C        -28.94583       15.14031       17.86108
O        -29.31168       16.28637       18.08827
C        -30.01393       14.02312       19.86578
C        -28.76779       13.63697       20.60360
O        -27.73698       14.28034       20.51497
O        -28.80814       12.51182       21.32360
H        -28.40151       12.39711       18.19709
H        -30.83923       14.19511       17.89078
H        -30.80384       13.28381       20.12549
H        -30.36293       15.01991       20.21125
N        -27.77813       14.91876       17.18871
C        -26.94375       15.96900       16.64228
C        -25.57394       16.03478       17.28243
O        -24.75278       16.77486       16.76429
H        -27.45281       13.96187       17.01247
H        -27.41119       16.97261       16.74379
H        -26.82736       15.76470       15.55640
N        -25.26999       15.37383       18.44465
C        -23.99520       15.56656       19.13807
C        -23.43848       14.26827       19.71810
O        -24.09505       13.24030       19.70786
C        -24.14981       16.63319       20.25229
C        -24.49606       18.01339       19.67835
O        -25.14238       16.23246       21.16017
H        -25.99941       14.83062       18.91771
H        -23.23222       15.92995       18.41513
H        -23.17454       16.73375       20.78058
H        -25.02439       16.78145       21.97883
H        -23.71238       18.33443       18.95857
H        -25.48064       18.00252       19.16725
H        -24.54157       18.76174       20.49683
N        -22.16654       14.28053       20.21455
C        -21.44454       13.13845       20.76603
C        -20.96417       13.49413       22.17335
O        -20.36203       14.53928       22.36607
C        -20.30208       12.76809       19.76429
C        -20.95829       12.02144       18.56216
C        -19.19364       11.91058       20.39640
C        -20.00303       11.58845       17.45310
H        -21.63668       15.16169       20.14677
H        -22.09649       12.24526       20.86319
H        -19.80367       13.70293       19.42482
H        -21.73253       12.67053       18.10167
H        -21.46446       11.10220       18.93612
H        -18.74075       12.42432       21.26981
H        -19.58328       10.93140       20.69905
H        -18.36597       11.74467       19.67789
H        -19.25556       10.85865       17.82563
H        -20.58697       11.07811       16.65643
H        -19.49121       12.47021       17.01835
N        -21.18502       12.62003       23.20072
C        -20.83104       12.85576       24.60113
C        -19.66566       11.95657       25.00035
O        -19.09788       11.31308       24.14042
C        -22.07182       12.55428       25.49024
C        -23.29562       13.39204       25.07749
O        -22.34607       11.16762       25.48921
H        -21.62280       11.71556       22.98339
H        -20.52100       13.91080       24.76381
H        -21.85295       12.83844       26.54011
H        -23.19168       10.98274       25.00882
H        -23.06255       14.47493       25.14035
H        -23.60192       13.14745       24.03899
H        -24.14785       13.16929       25.75484
N        -19.26989       11.84212       26.30025
C        -18.25987       10.88069       26.75718
C        -18.66918        9.44610       26.41734
O        -17.85419        8.71315       25.87324
C        -18.02088       11.01871       28.28353
C        -17.34487       12.36064       28.61122
O        -19.23749       10.89363       28.97784
H        -19.74263       12.42587       27.00305
H        -17.28585       11.08375       26.25685
H        -17.32765       10.20624       28.60205
H        -19.03686       10.97802       29.94625
H        -17.14045       12.42809       29.70064
H        -16.37293       12.43502       28.07745
H        -17.98160       13.22010       28.31780
N        -19.92906        8.99273       26.68160
C        -20.41099        7.63039       26.39828
C        -20.38816        7.23992       24.91616
O        -20.73660        6.10610       24.61641
C        -21.86677        7.49409       26.90992
C        -21.93900        7.56092       28.44275
C        -23.38717        7.65715       28.93294
C        -23.43461        7.62978       30.46676
N        -24.79278        7.85590       30.95735
H        -20.58139        9.66313       27.11532
H        -19.76687        6.90034       26.93628
H        -22.30971        6.51996       26.60451
H        -22.47556        8.30439       26.44768
H        -21.39899        8.45127       28.82659
H        -21.44854        6.65131       28.85453
H        -23.99361        6.81554       28.53211
H        -23.81826        8.61447       28.56388
H        -22.76866        8.41957       30.88042
H        -23.06816        6.64083       30.82327
H        -24.79328        7.78727       32.00079
H        -25.11169        8.81422       30.68430
H        -25.44689        7.13990       30.56687
N        -20.01157        8.10661       23.93882
C        -20.03505        7.81060       22.51380
C        -18.62748        7.91134       21.94358
O        -18.14126        6.92989       21.39871
C        -20.99345        8.80993       21.84550
C        -22.44161        8.60351       22.30778
C        -23.32885        9.71512       21.83049
O        -24.03981       10.44217       22.71113
O        -23.40933        9.97251       20.64538
H        -19.73704        9.05385       24.19568
H        -20.40591        6.78056       22.31174
H        -20.95027        8.71618       20.73713
H        -20.68014        9.82668       22.13989
H        -22.50084        8.57905       23.41662
H        -22.79915        7.63212       21.90932
N        -17.90395        9.06013       22.04165
C        -16.55555        9.18682       21.53438
H        -15.89125        8.44724       22.02959
H        -16.54442        9.02872       20.43601
H        -16.16739       10.20643       21.75007
H        -18.31453        9.87823       22.49677
Ca       -27.13650       11.23113       22.05508
O        -26.04926       13.85887       23.26907
H        -26.69533       14.60788       23.23739
H        -25.48297       13.97848       22.46598
O        -26.41441       11.10172       24.99739
H        -26.96945       10.28284       24.96896
H        -27.05476       11.83714       24.82565

Ca 1.0



