%chk=holoCaM-CaMKII.loop1.water2.frame424.chk
%nprocshared=20
%mem=10GB
%nosave
#b3lyp/svp scf=(tight,noincore,xqc) Test 
#IOP(5/87=12) Density=Current Pop=(MK,readradii) iop(6/33=2) iop(6/42=6)

holoCaM-CaMKII.loop1.water2.frame424 

   0  1 
C         58.54709       55.52654       29.99037
C         58.91077       54.63064       28.84193
O         58.72130       53.42967       28.94406
H         57.46314       55.44493       30.20741
H         59.12763       55.22371       30.88754
H         58.78828       56.58860       29.76939
N         59.46698       55.15282       27.71679
C         59.93630       54.35079       26.59009
C         61.00273       53.36038       27.06502
O         62.00602       53.78683       27.61964
C         60.48280       55.31534       25.50867
C         61.24983       54.62630       24.42507
O         60.67436       53.72751       23.61017
O         62.42794       54.89447       24.28490
H         59.59250       56.17696       27.67829
H         59.08549       53.78498       26.14817
H         61.18259       56.03079       25.99454
H         59.64458       55.90269       25.07151
N         60.83991       52.01629       26.85948
C         61.79137       50.99069       27.29049
C         62.47690       50.29345       26.11795
O         63.38698       49.51813       26.37589
C         61.07180       49.90560       28.12888
C         60.45541       50.37518       29.45366
C         61.52037       50.82658       30.46647
C         60.94933       51.06566       31.87463
N         59.98660       52.16614       31.91458
H         59.99989       51.70308       26.35982
H         62.60872       51.45479       27.88128
H         61.78148       49.08335       28.36984
H         60.26008       49.46831       27.50466
H         59.91866       49.50184       29.88578
H         59.71248       51.17175       29.26416
H         62.03282       51.74416       30.10863
H         62.27704       50.01692       30.56130
H         61.79695       51.30556       32.55425
H         60.46959       50.13330       32.24853
H         59.14066       51.93920       31.34581
H         59.68386       52.31104       32.90500
H         60.43213       53.04511       31.56544
N         62.11679       50.50495       24.81925
C         62.80935       49.89749       23.68301
C         63.44580       50.96179       22.79191
O         63.98336       50.61162       21.74981
C         61.86813       48.92904       22.93514
C         60.55317       49.52071       22.52581
O         60.50383       50.45678       21.74761
O         59.41302       48.99424       23.01114
H         61.33002       51.13317       24.60472
H         63.65970       49.26351       24.01687
H         61.65380       48.07660       23.61727
H         62.38526       48.51315       22.04289
N         63.52829       52.26448       23.19234
C         64.27533       53.28612       22.47576
C         63.65989       53.76357       21.17674
O         64.25914       54.64591       20.57748
H         63.15312       52.53299       24.11089
H         65.30707       52.91803       22.29143
H         64.37943       54.17639       23.12750
N         62.50926       53.24897       20.64839
C         62.02178       53.68013       19.33828
C         61.51640       55.12186       19.30685
O         61.38155       55.64749       18.21026
C         60.98531       52.69761       18.74884
C         59.71019       52.54853       19.53422
O         59.51979       53.20499       20.69053
O         58.83919       51.79843       19.12505
H         62.02689       52.48309       21.13498
H         62.89551       53.62862       18.64884
H         61.45806       51.69405       18.67437
H         60.72792       53.03016       17.71976
N         61.20590       55.82193       20.43935
C         60.82297       57.22941       20.42408
C         59.38400       57.49228       20.82574
O         59.03532       58.66109       20.91488
H         61.25794       55.35729       21.35711
H         60.95508       57.67758       19.41496
H         61.50383       57.77443       21.11226
N         58.47364       56.49059       21.01527
C         57.06103       56.73809       21.30534
C         56.63689       55.99313       22.59469
O         56.59668       54.61176       22.37113
C         56.18305       56.34779       20.08229
C         56.45304       57.24285       18.86537
O         56.34460       54.99614       19.72977
H         58.77359       55.51723       20.89374
H         56.89505       57.82082       21.49519
H         55.11646       56.50151       20.35403
H         57.23594       54.88368       19.30687
H         57.50481       57.14268       18.52264
H         55.78088       56.94785       18.03148
H         56.25559       58.30504       19.12017
N         55.32534       56.43613       23.08639
C         54.96120       55.79069       24.36675
C         53.63193       55.09198       24.14627
O         52.62635       55.75992       23.94693
C         54.89591       56.80639       25.55645
C         56.26799       57.49448       25.79095
C         54.43054       56.10027       26.84348
C         56.21046       58.61662       26.83414
H         55.25177       57.47863       23.12827
H         55.71566       55.01704       24.64538
H         54.14603       57.58711       25.29849
H         56.61825       57.96447       24.84997
H         57.02667       56.74131       26.09876
H         53.43944       55.63713       26.69169
H         55.15870       55.31903       27.14802
H         54.29994       56.81414       27.67783
H         55.95013       58.23685       27.84201
H         57.20517       59.10210       26.91298
H         55.46641       59.38354       26.52856
N         53.56745       53.73097       24.14036
C         52.32335       52.98436       23.96811
C         51.46120       53.11607       25.21329
O         51.88157       53.72646       26.18084
C         52.60980       51.47120       23.73212
C         53.44523       51.21772       22.47599
O         53.26242       50.93173       24.84957
H         54.44374       53.20966       24.24776
H         51.78248       53.37356       23.07731
H         51.63885       50.94704       23.58720
H         53.23926       49.94501       24.74898
H         54.45361       51.65782       22.58683
H         53.56840       50.12415       22.32256
H         52.94171       51.64246       21.58262
N         50.25213       52.50036       25.27767
C         49.49280       52.38522       26.51908
C         50.28669       51.55695       27.53228
O         50.44799       51.99728       28.66219
C         48.10176       51.75610       26.25447
C         47.23452       52.69741       25.40101
O         48.23824       50.51068       25.61859
H         49.89124       52.04273       24.42823
H         49.30486       53.39529       26.95022
H         47.59533       51.61992       27.23785
H         47.33538       50.09946       25.58860
H         46.22714       52.25623       25.24987
H         47.10787       53.67321       25.91788
H         47.69058       52.87952       24.40563
N         50.84109       50.35903       27.17404
C         51.58946       49.47567       28.08077
C         52.85913       50.11115       28.66489
O         53.44397       49.52103       29.56081
C         51.97116       48.19162       27.29519
C         52.62680       47.05240       28.10368
C         53.16491       45.93272       27.19759
C         52.08984       45.21254       26.37287
N         52.70041       44.19464       25.51831
H         50.69863       50.04829       26.20039
H         50.90773       49.21111       28.91871
H         52.66547       48.49215       26.48198
H         51.04388       47.79020       26.83548
H         51.90787       46.65328       28.85143
H         53.52084       47.41668       28.63939
H         53.68069       45.18439       27.83868
H         53.92120       46.37133       26.50919
H         51.55169       45.93317       25.72225
H         51.35611       44.73557       27.05927
H         51.95206       43.70884       24.97394
H         53.36424       44.64651       24.84697
H         53.21307       43.49199       26.09881
N         53.34840       51.30255       28.22792
C         54.58430       51.89618       28.72473
C         54.23532       53.05490       29.63655
O         54.67922       53.04971       30.77683
C         55.49807       52.26114       27.53118
C         55.94565       50.97746       26.79819
C         56.81243       51.23922       25.60003
O         58.02570       50.66797       25.51316
O         56.40282       51.91022       24.66983
H         52.84502       51.81941       27.49938
H         55.15918       51.17920       29.35416
H         56.40086       52.79305       27.89756
H         54.95380       52.93389       26.83265
H         55.05932       50.41076       26.45696
H         56.50698       50.33021       27.50665
N         53.37702       54.03362       29.24247
C         52.90770       55.08663       30.12127
H         51.80513       54.99990       30.23021
H         53.35674       55.02774       31.13488
H         53.14650       56.07604       29.68488
H         52.99036       54.00722       28.29437
Ca        58.47249       53.81332       23.31159
O         56.44131       49.69327       21.74278
H         56.99735       49.57366       20.93224
H         57.09039       49.87641       22.46652
O         55.84822       52.36650       20.53616
H         55.14048       53.00105       20.81460
H         55.39245       51.75538       19.90583

Ca 1.0



