%chk=holoCaM-CaMKII.loop2.water2.frame293.chk
%nprocshared=20
%mem=10GB
%nosave
#b3lyp/svp scf=(tight,noincore,xqc) Test 
#IOP(5/87=12) Density=Current Pop=(MK,readradii) iop(6/33=2) iop(6/42=6)

holoCaM-CaMKII.loop2.water2.frame293 

   -2  1 
C         42.07828       17.50494       76.36745
C         43.21212       16.80168       75.67470
O         43.59069       17.18724       74.57965
H         41.24985       16.79199       76.56082
H         42.43768       17.90336       77.34213
H         41.69778       18.35401       75.76229
N         43.83248       15.77113       76.30377
C         45.01962       15.09071       75.79715
C         44.75304       14.25333       74.54850
O         43.86619       13.41166       74.56669
C         45.59053       14.20852       76.91960
C         46.85133       13.53231       76.49759
O         47.78306       14.19437       76.07634
O         46.95251       12.19258       76.57013
H         43.48133       15.51416       77.24066
H         45.79443       15.85981       75.57599
H         44.84766       13.44533       77.23644
H         45.82235       14.85767       77.79188
N         45.55108       14.40100       73.44764
C         45.41940       13.63129       72.21231
C         46.68825       12.83633       71.85638
O         46.70223       12.24715       70.78351
C         45.09201       14.61162       71.07721
H         46.29981       15.10607       73.48184
H         44.57687       12.90922       72.28066
H         44.15619       15.16327       71.31036
H         45.91470       15.34662       70.94266
H         44.93944       14.06995       70.11875
N         47.78614       12.76621       72.67530
C         49.05775       12.15497       72.24084
C         49.97538       11.63526       73.36207
O         51.00974       11.07327       73.02708
C         49.82968       13.17643       71.36935
C         50.13434       14.45204       72.12273
O         50.60786       15.41221       71.53743
O         49.81183       14.54822       73.42923
H         47.74689       13.27596       73.56241
H         48.82702       11.25799       71.62291
H         49.19093       13.43393       70.49677
H         50.77028       12.73236       70.97574
N         49.68298       11.74824       74.68911
C         50.51026       11.18348       75.74643
C         51.86574       11.83967       75.96664
O         52.58628       11.34010       76.81978
H         48.80474       12.17615       74.98011
H         50.65447       10.10128       75.53936
H         49.96066       11.26875       76.70987
N         52.29754       12.94351       75.28446
C         53.61872       13.54178       75.51174
C         53.79690       14.21457       76.88779
O         54.86468       14.76309       77.12514
C         54.00128       14.51945       74.37330
C         53.20663       15.79306       74.26898
N         53.61429       16.74782       73.40316
O         52.22151       15.98414       74.96337
H         51.70094       13.33920       74.54792
H         54.37315       12.72777       75.43483
H         53.95137       13.99342       73.39521
H         55.06089       14.81415       74.53690
H         54.44683       16.60475       72.81330
H         53.12249       17.64520       73.34165
N         52.83281       14.18960       77.85351
C         52.99092       14.76679       79.18095
C         52.84296       16.27609       79.25056
O         52.87984       16.78653       80.36149
H         51.97046       13.66420       77.69441
H         53.95479       14.43786       79.62718
H         52.17705       14.36405       79.82286
N         52.65297       17.05838       78.14767
C         52.43383       18.50272       78.21901
C         51.15192       18.91434       77.51626
O         50.55927       18.13174       76.78661
C         53.62034       19.26272       77.57278
C         54.89342       19.11814       78.40302
O         53.86690       18.79022       76.27141
H         52.66590       16.62508       77.22008
H         52.33229       18.82952       79.27749
H         53.40898       20.35702       77.53956
H         53.15104       19.15081       75.68617
H         55.71711       19.68864       77.92307
H         54.72889       19.53564       79.42001
H         55.19545       18.05409       78.48887
N         50.69678       20.18716       77.68297
C         49.61252       20.77320       76.91066
C         50.20873       21.26608       75.59942
O         51.14779       22.05037       75.63421
C         48.95794       21.95047       77.70471
C         48.34912       21.44359       79.04055
C         47.87689       22.64592       76.85683
C         47.84343       22.57057       79.94919
H         51.21926       20.80936       78.31950
H         48.81247       20.01969       76.72513
H         49.74982       22.69765       77.93531
H         49.12509       20.89871       79.61750
H         47.51516       20.73634       78.83444
H         48.31144       23.04444       75.92244
H         47.05745       21.93851       76.60692
H         47.45421       23.52160       77.38292
H         47.00732       23.13503       79.49051
H         47.46513       22.13924       80.89955
H         48.67258       23.27118       80.18538
N         49.68002       20.88232       74.40510
C         50.13039       21.40286       73.11668
C         49.25350       22.56604       72.71085
O         48.33800       22.90536       73.44554
C         50.06223       20.30109       72.03954
C         50.97440       19.15657       72.33937
O         50.81465       18.44619       73.46894
O         51.85265       18.85136       71.54823
H         48.84037       20.29295       74.41703
H         51.17171       21.78884       73.19019
H         50.34980       20.71941       71.05162
H         49.02199       19.91668       71.96274
N         49.48324       23.25681       71.56095
C         48.66044       24.39157       71.17288
C         47.20197       23.96779       70.96737
O         46.34811       24.59775       71.57204
C         49.22586       25.11603       69.92899
C         48.58376       26.46776       69.73908
C         48.86918       27.50926       70.64074
C         47.71334       26.70966       68.66390
C         48.29793       28.77174       70.46570
C         47.13349       27.97220       68.49987
C         47.42848       29.00285       69.39741
H         50.28202       22.98915       70.96446
H         48.71340       25.12922       72.00665
H         49.09689       24.50919       69.01962
H         50.31911       25.28443       70.04239
H         49.54684       27.34714       71.47033
H         47.47580       25.92107       67.96094
H         48.53198       29.57078       71.15758
H         46.45691       28.15292       67.67515
H         46.98507       29.98104       69.26492
N         46.82054       22.90976       70.16781
C         45.42535       22.51143       69.96251
C         44.66899       22.18881       71.23920
O         43.44694       22.13396       71.21568
C         45.54036       21.20072       69.16453
C         46.81517       21.40218       68.38827
C         47.71636       22.02899       69.44250
H         44.92971       23.32563       69.39057
H         45.75592       20.35516       69.86212
H         44.64125       20.93291       68.57091
H         47.23261       20.48574       67.91844
H         46.61447       22.16021       67.59849
H         48.10529       21.26700       70.15007
H         48.55263       22.51533       68.91945
N         45.35287       21.81540       72.35084
C         44.74021       21.25938       73.54670
C         44.33461       22.39170       74.46149
O         43.17036       22.46740       74.82672
C         45.72188       20.23448       74.17001
C         45.97255       19.11579       73.12805
C         47.01197       18.09611       73.45513
O         47.24039       17.23021       72.62597
O         47.74711       18.12003       74.57930
H         46.38033       21.78521       72.29410
H         43.82954       20.67359       73.28126
H         45.30015       19.79122       75.09843
H         46.66761       20.74996       74.42657
H         46.31531       19.55433       72.17000
H         45.01552       18.58839       72.93339
N         45.23301       23.35397       74.80986
C         44.89573       24.52545       75.59184
H         43.83396       24.53059       75.91288
H         45.53808       24.57213       76.49260
H         45.07932       25.43317       74.97777
H         46.19729       23.28396       74.46665
Ca        49.20821       16.41549       74.50833
O         47.69152       17.13981       77.33635
H         47.40935       16.80993       78.22546
H         47.14402       17.95051       77.18596
O         50.01762       15.25641       77.33933
H         49.87073       15.23060       78.31747
H         49.97620       14.30786       77.06006

Ca 1.0



