%chk=holoCaM.loop3.water2.frame52.chk
%nprocshared=20
%mem=10GB
%nosave
#b3lyp/svp scf=(tight,noincore,xqc) Test 
#IOP(5/87=12) Density=Current Pop=(MK,readradii) iop(6/33=2) iop(6/42=6)

holoCaM.loop3.water2.frame52 

   0  1 
C         91.96274       82.19859       35.20793
C         92.32420       83.30546       36.15046
O         93.35980       83.21895       36.79501
H         91.00919       82.41389       34.68075
H         92.76685       82.07146       34.45558
H         91.83815       81.25577       35.78181
N         91.48335       84.36259       36.31597
C         91.71660       85.43116       37.26995
C         90.70809       85.22890       38.38494
O         89.77149       86.00219       38.51831
C         91.58373       86.79782       36.55520
C         92.06006       87.88123       37.46536
O         93.35124       87.87108       37.84731
O         91.27774       88.68807       37.92738
H         90.59397       84.37883       35.79257
H         92.73756       85.35952       37.70868
H         90.52900       86.95719       36.23825
H         92.21801       86.83969       35.65046
N         90.79651       84.10649       39.15576
C         89.73782       83.68208       40.06647
C         89.68507       84.47346       41.37106
O         88.75330       84.23788       42.12880
C         89.83030       82.16501       40.36194
C         89.84266       81.31832       39.06807
C         89.81351       79.80306       39.32571
C         88.49340       79.27065       39.91600
N         87.35493       79.50273       39.02256
H         91.58778       83.47148       38.97984
H         88.76726       83.82486       39.53773
H         88.94189       81.89008       40.96851
H         90.74439       81.94209       40.95432
H         90.77754       81.52378       38.50900
H         89.00195       81.60471       38.40395
H         90.65492       79.53484       40.00130
H         89.98275       79.28418       38.35692
H         88.28958       79.71841       40.91115
H         88.60949       78.17426       40.06396
H         87.14313       80.52272       38.94774
H         87.55172       79.10840       38.07362
H         86.51080       79.02682       39.41412
N         90.59807       85.44063       41.69801
C         90.44346       86.29038       42.88458
C         89.72561       87.59845       42.51974
O         89.36794       88.35154       43.41365
C         91.81040       86.52792       43.57289
C         92.68682       87.38196       42.70550
O         93.81759       86.90944       42.16934
O         92.32918       88.50837       42.40522
H         91.35151       85.66584       41.03240
H         89.79463       85.76681       43.62058
H         92.29491       85.54459       43.76712
H         91.67192       87.04334       44.54694
N         89.46265       87.90705       41.21595
C         88.66641       89.02508       40.75148
C         89.28092       90.38798       40.95692
O         88.61819       91.23772       41.53413
H         89.78502       87.27628       40.48027
H         87.65623       88.96811       41.21121
H         88.53455       88.91421       39.65221
N         90.50902       90.69563       40.44316
C         91.05619       92.05395       40.43230
C         91.44519       92.51072       39.01490
O         92.01358       93.58519       38.88189
C         92.23126       92.17176       41.42040
C         93.51389       91.53425       40.95460
N         94.62934       92.28832       40.81606
O         93.55656       90.33976       40.70997
H         91.06850       89.94026       40.02507
H         90.29389       92.76821       40.81487
H         91.92605       91.74364       42.40013
H         92.41998       93.25527       41.58682
H         94.61763       93.29868       41.02010
H         95.51379       91.86373       40.51105
N         91.13502       91.76809       37.90871
C         91.44200       92.15679       36.53827
C         92.88957       91.97694       36.09653
O         93.15234       92.30408       34.94725
H         90.54904       90.93445       38.01942
H         91.12194       93.21058       36.37870
H         90.83663       91.52410       35.85370
N         93.88251       91.49981       36.90864
C         95.29214       91.45304       36.49492
C         95.95445       90.11048       36.76872
O         95.86088       89.60294       37.87614
C         96.04849       92.57865       37.21953
C         95.53084       93.91208       36.73539
C         94.79722       94.75296       37.58479
C         95.75453       94.30604       35.40301
C         94.27808       95.95924       37.10232
C         95.24194       95.51233       34.92583
C         94.49549       96.34156       35.77302
O         93.98147       97.50239       35.31995
H         93.65912       91.25963       37.88531
H         95.39852       91.65040       35.40711
H         97.13988       92.52962       37.01076
H         95.90523       92.45801       38.31194
H         94.60813       94.46560       38.61077
H         96.32226       93.67519       34.72965
H         93.69876       96.59355       37.76041
H         95.41995       95.79579       33.89584
H         94.10330       97.79466       34.40503
N         96.71169       89.52004       35.79486
C         97.45810       88.27165       35.94527
C         98.94964       88.54780       35.74407
O         99.31492       89.15259       34.74422
C         96.93913       87.22544       34.91226
C         95.43886       86.92368       35.17072
C         97.77288       85.92800       34.97436
C         94.82152       85.96652       34.14743
H         96.78652       89.99254       34.88015
H         97.31141       87.83609       36.95619
H         97.04999       87.65346       33.89062
H         94.86176       87.87150       35.11799
H         95.30837       86.49680       36.18997
H         97.68836       85.45289       35.97370
H         97.45638       85.20310       34.20010
H         98.83737       86.13548       34.75815
H         93.74398       85.83148       34.35901
H         94.93053       86.37904       33.12265
H         95.28120       84.96008       34.19781
N         99.87241       88.04938       36.62091
C        101.32151       88.18679       36.45370
C        101.91907       86.90012       35.90186
O        101.17856       85.96410       35.65413
C        101.96801       88.56508       37.80142
O        101.81915       87.53147       38.74199
H         99.53227       87.46477       37.39759
H        101.55088       88.98899       35.71869
H        101.53826       89.51828       38.18566
H        103.05452       88.75176       37.67260
H        101.00084       87.72479       39.26855
N        103.25431       86.78067       35.65691
C        103.85553       85.56053       35.11854
C        103.62308       84.38009       36.04478
O        103.10125       83.36753       35.60120
C        105.36129       85.75015       34.90127
H        103.86564       87.58889       35.85273
H        103.40837       85.34022       34.12237
H        105.53934       86.58634       34.19241
H        105.87991       85.97533       35.85717
H        105.80098       84.82666       34.46514
N        103.97602       84.46019       37.35835
C        103.80128       83.37251       38.31650
C        102.36387       82.89864       38.37441
O        102.13369       81.70364       38.24669
C        104.24544       83.82839       39.71139
H        104.38006       85.34822       37.69354
H        104.44879       82.51597       38.02303
H        103.63692       84.69170       40.05725
H        104.13466       82.99682       40.44011
H        105.31353       84.13220       39.68809
N        101.34308       83.78358       38.54553
C         99.94270       83.38204       38.63489
C         99.53368       82.55152       37.42642
O         99.09785       81.42358       37.60871
C         99.05345       84.63259       38.79371
C         97.57545       84.27159       38.98609
C         96.70650       85.47139       39.22076
O         97.22011       86.71664       39.27811
O         95.50923       85.30746       39.37493
H        101.57820       84.78657       38.60937
H         99.81631       82.76080       39.55014
H         99.16290       85.28416       37.90301
H         99.40133       85.19813       39.68700
H         97.47383       83.59892       39.86439
H         97.20090       83.74626       38.08191
N         99.67591       83.03924       36.16516
C         99.34730       82.29566       34.96695
H         98.60130       82.86391       34.37412
H        100.26588       82.16696       34.35576
H         98.93168       81.29164       35.19138
H        100.05787       83.97924       36.04122
Ca        93.81287       87.36132       39.97676
O         96.31559       87.95412       42.82407
H         96.04630       87.79064       43.76228
H         97.12051       87.39405       42.68935
O         96.91440       89.65651       40.53390
H         97.30961       90.28420       39.87873
H         97.21011       90.00518       41.41131

Ca 1.0



