%chk=holoCaM-CaMKII.loop1.water2.frame253.chk
%nprocshared=20
%mem=10GB
%nosave
#b3lyp/svp scf=(tight,noincore,xqc) Test 
#IOP(5/87=12) Density=Current Pop=(MK,readradii) iop(6/33=2) iop(6/42=6)

holoCaM-CaMKII.loop1.water2.frame253 

   0  1 
C         88.58148        1.28111       51.89301
C         88.35504        0.23861       50.84368
O         87.42651        0.36724       50.05804
H         89.59129        1.72235       51.75788
H         87.82215        2.08754       51.81606
H         88.51627        0.81636       52.89913
N         89.18760       -0.83489       50.77005
C         89.04610       -1.87430       49.76064
C         87.69299       -2.55111       49.92116
O         87.43598       -3.10761       50.98010
C         90.22343       -2.86309       49.88168
C         90.28289       -3.89815       48.80213
O         89.43756       -3.95882       47.92652
O         91.31051       -4.76025       48.79377
H         89.96165       -0.89705       51.45090
H         89.12368       -1.38867       48.76849
H         90.19418       -3.37412       50.86796
H         91.17044       -2.28265       49.81616
N         86.76202       -2.50029       48.92070
C         85.37751       -2.92819       49.09711
C         85.11017       -4.29413       48.48262
O         84.09892       -4.88909       48.82753
C         84.45501       -1.85727       48.46234
C         82.96445       -1.91856       48.83922
C         82.74651       -1.53875       50.31212
C         81.26216       -1.33933       50.63803
N         81.09570       -0.90262       52.02470
H         87.00977       -2.04287       48.03441
H         85.18315       -3.00060       50.18725
H         84.55452       -1.93242       47.35531
H         84.81626       -0.84445       48.74698
H         82.51376       -2.90588       48.60366
H         82.44926       -1.15692       48.21310
H         83.26546       -0.57498       50.50940
H         83.17239       -2.31733       50.97875
H         80.70481       -2.28731       50.47301
H         80.84025       -0.55996       49.96390
H         81.61116       -0.00549       52.18314
H         80.08082       -0.74280       52.21700
H         81.45756       -1.63410       52.67849
N         85.94771       -4.84628       47.55333
C         85.71339       -6.15250       46.93590
C         86.84186       -7.14475       47.21222
O         86.75381       -8.26863       46.73781
C         85.41211       -5.99000       45.42834
C         86.52074       -5.42857       44.57890
O         86.32882       -5.26684       43.38445
O         87.71942       -5.11300       45.10074
H         86.76944       -4.30952       47.24470
H         84.79999       -6.61820       47.36544
H         84.52596       -5.32525       45.32640
H         85.13573       -6.98331       45.01203
N         87.89269       -6.83685       48.02548
C         88.90410       -7.80383       48.42121
C         89.79506       -8.25456       47.28421
O         89.88760       -9.44367       47.01986
H         87.94707       -5.90659       48.46100
H         88.41158       -8.67216       48.90731
H         89.56637       -7.32819       49.17958
N         90.54881       -7.33473       46.63182
C         91.61407       -7.63631       45.67257
C         92.95741       -7.14851       46.21592
O         93.93186       -7.14759       45.47582
C         91.32244       -7.06542       44.25203
C         90.98209       -5.60179       44.14176
O         90.66717       -4.90509       45.24062
O         90.81440       -5.10272       43.04133
H         90.41453       -6.36069       46.92418
H         91.72367       -8.73279       45.52460
H         90.46410       -7.62094       43.81684
H         92.20329       -7.27481       43.60611
N         93.09955       -6.77177       47.52222
C         94.34440       -6.29713       48.09700
C         94.76281       -4.92256       47.61717
O         95.80497       -4.47301       48.07634
H         92.31352       -6.87854       48.17485
H         95.14917       -7.03745       47.89543
H         94.22079       -6.22457       49.19985
N         94.04161       -4.19178       46.71106
C         94.47906       -2.88520       46.22547
C         93.41580       -1.81347       46.42581
O         92.29721       -2.11601       46.82317
C         94.89111       -2.97880       44.73591
C         96.03839       -3.97788       44.51649
O         93.79071       -3.29632       43.92106
H         93.17158       -4.57620       46.31956
H         95.37483       -2.55201       46.79531
H         95.27223       -1.98755       44.41018
H         93.56079       -4.24993       44.06695
H         95.72971       -5.00751       44.79634
H         96.33580       -3.98040       43.44702
H         96.91942       -3.69240       45.12978
N         93.74335       -0.50913       46.20843
C         92.85712        0.63332       46.40880
C         92.84612        1.49425       45.14953
O         93.90129        1.78399       44.59928
C         93.33400        1.42927       47.66168
C         93.07885        0.56215       48.92858
C         92.61065        2.78829       47.78216
C         93.62005        1.15839       50.22673
H         94.71883       -0.29807       45.94262
H         91.81139        0.30998       46.62072
H         94.42239        1.63661       47.55747
H         93.56895       -0.42629       48.80963
H         91.98464        0.38843       49.04561
H         92.98401        3.36631       48.64996
H         92.81717        3.42144       46.89480
H         91.51304        2.64898       47.87843
H         93.40667        0.45806       51.06243
H         94.71844        1.29854       50.15156
H         93.13437        2.12312       50.47246
N         91.66932        2.01109       44.69971
C         91.51895        2.89750       43.55073
C         91.06641        4.26861       44.02757
O         90.87540        4.45688       45.21948
C         90.46859        2.32143       42.55906
C         90.84157        0.92423       42.06433
O         89.20673        2.27650       43.17633
H         90.82787        1.81672       45.24886
H         92.48955        3.01702       43.02114
H         90.41914        2.99278       41.67159
H         88.52262        2.31252       42.45742
H         90.89877        0.21746       42.91392
H         90.06667        0.55822       41.35613
H         91.82086        0.94355       41.54471
N         90.86434        5.28072       43.14572
C         90.33930        6.58994       43.53079
C         88.92384        6.46660       44.09156
O         88.66897        6.99350       45.16427
C         90.38142        7.57319       42.33522
C         91.83938        7.89439       41.95896
O         89.69337        7.03494       41.23405
H         91.08073        5.10417       42.15243
H         90.98270        7.03672       44.32357
H         89.89425        8.52452       42.64980
H         89.72068        7.71470       40.51112
H         92.38814        6.98403       41.64048
H         91.86891        8.63244       41.13056
H         92.36671        8.33962       42.83066
N         87.96437        5.75766       43.42893
C         86.58373        5.59806       43.89919
C         86.53299        5.05991       45.32087
O         85.89374        5.67213       46.16534
C         85.81356        4.69046       42.91168
C         84.33921        4.47871       43.30560
C         83.52507        3.73749       42.22838
C         83.30716        4.59131       40.96362
N         82.46636        3.89507       39.99119
H         88.23858        5.29050       42.55106
H         86.08386        6.59234       43.89149
H         86.30733        3.69671       42.82499
H         85.87149        5.19176       41.92569
H         83.84774        5.45402       43.51040
H         84.31443        3.87627       44.24023
H         82.52501        3.50973       42.65779
H         84.01789        2.77409       41.97135
H         84.27451        4.83601       40.47929
H         82.81044        5.54482       41.25222
H         82.93440        3.01398       39.67820
H         81.53412        3.67414       40.41038
H         82.32310        4.51541       39.16115
N         87.22647        3.94386       45.65979
C         87.28916        3.38796       47.01320
C         87.73583        4.44934       48.00824
O         87.01775        4.69125       48.96911
C         88.23733        2.17003       46.99924
C         87.57638        1.00115       46.23727
C         88.54823       -0.05532       45.81294
O         89.28914        0.13966       44.87097
O         88.57265       -1.25119       46.39960
H         87.77971        3.49779       44.91369
H         86.28042        3.04135       47.33393
H         88.47657        1.81823       48.02679
H         89.18614        2.49375       46.53054
H         87.07367        1.33649       45.30594
H         86.79388        0.56986       46.89919
N         88.87497        5.16426       47.81765
C         89.27379        6.23667       48.70368
H         90.20664        6.71019       48.32944
H         88.47903        7.01372       48.73704
H         89.45244        5.84411       49.72612
H         89.45658        4.97103       46.99840
Ca        89.69739       -2.89779       45.37638
O         87.84824       -2.11917       43.02724
H         87.85950       -3.09153       42.84259
H         87.88514       -1.69730       42.13250
O         91.19687       -2.30108       42.72697
H         92.03061       -2.42631       42.20944
H         90.49376       -2.20476       42.03732

Ca 1.0



