%chk=holoCaM-CaMKII.loop2.water2.frame120.chk
%nprocshared=20
%mem=10GB
%nosave
#b3lyp/svp scf=(tight,noincore,xqc) Test 
#IOP(5/87=12) Density=Current Pop=(MK,readradii) iop(6/33=2) iop(6/42=6)

holoCaM-CaMKII.loop2.water2.frame120 

   -2  1 
C         29.38230       68.98789       64.63894
C         29.34505       69.57240       63.25996
O         30.30687       69.43558       62.51751
H         28.54976       68.25882       64.74591
H         30.34088       68.45791       64.81918
H         29.25765       69.79225       65.39260
N         28.22172       70.20673       62.83391
C         28.06198       70.69744       61.47421
C         28.96090       71.90085       61.22123
O         28.83794       72.88681       61.93518
C         26.57750       71.05731       61.23307
C         26.22430       71.21689       59.78385
O         27.05069       71.01682       58.91177
O         24.95665       71.50958       59.44168
H         27.42273       70.26617       63.48548
H         28.30899       69.85786       60.78698
H         26.30997       71.97740       61.79653
H         25.94044       70.22498       61.60188
N         29.86637       71.89695       60.20080
C         30.73681       73.02920       59.88601
C         30.39304       73.66684       58.53939
O         31.01685       74.66147       58.19563
C         32.19703       72.55693       59.90406
H         29.92584       71.05924       59.60624
H         30.62479       73.82806       60.65038
H         32.36362       71.77221       59.13513
H         32.89014       73.40069       59.69978
H         32.44862       72.13220       60.89942
N         29.43146       73.14925       57.71939
C         29.07993       73.69194       56.41053
C         27.56464       73.84981       56.25566
O         27.12936       74.95928       55.97933
C         29.74044       72.84679       55.28622
C         29.78068       71.36109       55.55098
O         30.85869       70.81476       55.72034
O         28.65767       70.64489       55.70417
H         28.96136       72.28072       57.99271
H         29.50559       74.71359       56.27773
H         30.80533       73.17062       55.24165
H         29.28853       73.08579       54.30009
N         26.70253       72.80125       56.40076
C         25.26505       72.88223       56.18595
C         24.78372       71.94224       55.08949
O         23.58682       71.92632       54.84012
H         27.06296       71.89127       56.68513
H         24.95551       73.91294       55.91169
H         24.74885       72.61676       57.13072
N         25.63867       71.15119       54.37150
C         25.20874       70.31582       53.25137
C         24.21329       69.20985       53.61641
O         23.64815       68.63553       52.69597
C         26.42999       69.71568       52.50287
C         27.29096       68.77407       53.31617
N         28.32150       68.12735       52.72835
O         27.06994       68.58938       54.50109
H         26.64270       71.20096       54.56645
H         24.69263       70.99342       52.53626
H         27.08195       70.54114       52.14221
H         26.05898       69.16240       51.61430
H         28.53377       68.26522       51.73032
H         28.89924       67.47280       53.27107
N         23.96412       68.83136       54.90477
C         22.98130       67.81417       55.27233
C         23.60236       66.52203       55.78264
O         22.85600       65.65098       56.20546
H         24.49481       69.27061       55.66649
H         22.34174       67.53549       54.40605
H         22.31184       68.24851       56.04453
N         24.94090       66.28642       55.68030
C         25.58796       65.01323       55.98152
C         26.87321       65.20882       56.76707
O         27.70169       66.01819       56.37204
C         25.96079       64.28767       54.66214
C         24.73518       63.71115       53.94196
O         26.71221       65.11731       53.80695
H         25.52575       67.00712       55.25341
H         24.91389       64.32821       56.54330
H         26.58957       63.40428       54.91426
H         26.08676       65.75022       53.36451
H         24.22056       62.98237       54.60549
H         24.01924       64.50862       53.65685
H         25.06358       63.17265       53.02773
N         27.16988       64.36993       57.80207
C         28.49189       64.31101       58.42471
C         29.54051       64.01617       57.35982
O         29.42045       63.03375       56.63979
C         28.53887       63.22751       59.55649
C         27.67833       63.69897       60.75951
C         29.99035       62.94837       60.01144
C         27.59908       62.69081       61.90958
H         26.45991       63.67889       58.08914
H         28.73308       65.28840       58.89500
H         28.13691       62.27020       59.15482
H         26.64056       63.89329       60.41825
H         28.09226       64.65169       61.15925
H         30.60040       62.56167       59.17002
H         30.45858       63.87083       60.40948
H         30.03739       62.14984       60.77652
H         27.17633       61.72898       61.55196
H         28.59165       62.51157       62.37031
H         26.94366       63.09724       62.70792
N         30.64970       64.80266       57.28767
C         31.79224       64.54716       56.42374
C         32.93195       64.00199       57.26478
O         32.75783       63.82468       58.45978
C         32.22099       65.86023       55.73719
C         31.13460       66.43201       54.88348
O         30.69936       65.79608       53.93725
O         30.65601       67.66293       55.14257
H         30.74228       65.57321       57.96118
H         31.55075       63.77943       55.65571
H         33.10149       65.68889       55.08505
H         32.50415       66.60550       56.51543
N         34.12864       63.68255       56.70805
C         35.25163       63.15999       57.47887
C         35.73710       64.14174       58.55961
O         35.82614       63.71010       59.69924
C         36.39039       62.73133       56.53334
C         37.50117       62.00083       57.25113
C         38.80930       62.51086       57.23684
C         37.24508       60.78957       57.92318
C         39.84144       61.82334       57.88296
C         38.27963       60.10733       58.56929
C         39.57720       60.62315       58.54833
H         34.23830       63.79618       55.68759
H         34.90064       62.23210       57.98389
H         36.78125       63.61538       55.99295
H         35.97853       62.03587       55.76943
H         39.03161       63.43742       56.72296
H         36.24869       60.36654       57.94403
H         40.84778       62.22002       57.86490
H         38.07569       59.17599       59.08248
H         40.37807       60.09123       59.04519
N         36.04054       65.46539       58.32262
C         36.51564       66.39673       59.35343
C         35.46088       66.78018       60.39415
O         35.75793       67.61616       61.23719
C         36.97685       67.61271       58.53745
C         36.00417       67.60904       57.38375
C         35.95006       66.12669       57.03491
H         37.39829       65.99339       59.89550
H         37.05764       68.56801       59.09999
H         37.97661       67.38341       58.10306
H         35.01102       67.91675       57.78127
H         36.26238       68.27098       56.53033
H         35.00045       65.95564       56.50156
H         36.81796       65.82345       56.41279
N         34.23413       66.19652       60.42602
C         33.18516       66.49882       61.38968
C         33.01558       65.30662       62.31284
O         33.06390       65.48785       63.52136
C         31.90123       66.86412       60.61613
C         32.17218       68.12675       59.78135
C         31.08883       68.53781       58.84184
O         31.28013       69.52518       58.15309
O         29.95026       67.84263       58.66941
H         34.00323       65.49210       59.72332
H         33.45166       67.37191       62.02848
H         31.05789       67.05519       61.31476
H         31.62430       66.01694       59.95923
H         33.06201       67.96632       59.14027
H         32.38213       68.97341       60.47056
N         32.89932       64.04284       61.82011
C         32.85168       62.87673       62.67191
H         33.76082       62.84077       63.31088
H         31.94359       62.90408       63.30698
H         32.83211       61.95724       62.04741
H         32.89670       63.88667       60.80885
Ca        28.75236       68.85279       57.05907
O         25.76194       68.52509       57.76230
H         25.38108       67.65394       58.03576
H         25.03862       69.17523       57.94470
O         26.97712       67.60635       60.33050
H         26.31008       66.95109       60.65421
H         27.44230       67.14184       59.59131

Ca 1.0



