%chk=holoCaM.loop4.water3.frame293.chk
%nprocshared=20
%mem=10GB
%nosave
#b3lyp/svp scf=(tight,noincore,xqc) Test 
#IOP(5/87=12) Density=Current Pop=(MK,readradii) iop(6/33=2) iop(6/42=6)

holoCaM.loop4.water3.frame293 

   -3  1 
C         41.19839       48.92023       91.12921
C         41.91557       50.07806       91.75540
O         41.26608       50.86162       92.43017
H         40.40339       49.29762       90.45252
H         41.89079       48.27747       90.54764
H         40.73176       48.30547       91.92824
N         43.25660       50.25595       91.57045
C         44.00912       51.35068       92.17961
C         45.44113       51.35386       91.65242
O         46.10742       50.33093       91.73544
C         44.02263       51.22144       93.72256
C         44.57685       52.44090       94.40995
O         44.69896       52.44677       95.75017
O         44.87175       53.44163       93.77693
H         43.75283       49.59037       90.95780
H         43.50933       52.30408       91.90522
H         44.61474       50.32652       94.00968
H         42.99788       51.09205       94.12208
N         45.97753       52.48220       91.10650
C         47.29717       52.54127       90.48123
C         48.27777       53.37945       91.30292
O         49.47344       53.17877       91.13767
C         47.12937       53.11566       89.03167
C         46.15936       52.22484       88.20709
C         48.47670       53.28387       88.29722
C         45.75598       52.83290       86.86166
H         45.40848       53.33773       91.09998
H         47.73549       51.52023       90.42019
H         46.67285       54.12752       89.12705
H         45.21389       52.08785       88.76929
H         46.60826       51.22110       88.04503
H         48.33740       53.73912       87.29696
H         49.14314       53.98462       88.83845
H         48.98716       52.30487       88.18227
H         45.28398       53.82716       87.01786
H         46.62268       52.93521       86.18014
H         45.01718       52.17120       86.36262
N         47.86812       54.39379       92.11986
C         48.80132       55.34796       92.72609
C         48.61660       55.56418       94.22963
O         49.40717       56.31143       94.79061
C         48.66814       56.68980       91.97446
C         47.23874       57.13365       91.89790
O         46.52797       57.26037       93.02415
O         46.69816       57.30362       90.81699
H         46.86109       54.58153       92.21289
H         49.85211       55.00906       92.59963
H         49.04887       56.56597       90.93777
H         49.27960       57.47343       92.47109
N         47.62007       54.98498       94.95506
C         47.44508       55.22791       96.38096
C         47.17743       56.69237       96.67892
O         47.93510       57.30265       97.41854
H         46.96212       54.34778       94.49620
H         48.34916       54.88221       96.92732
H         46.57862       54.63464       96.74954
N         46.08558       57.30275       96.14538
C         45.68745       58.69219       96.40287
C         44.35525       58.76263       97.15083
O         43.84630       59.85949       97.33845
C         45.64671       59.50396       95.08066
C         44.69105       58.98176       94.04457
O         43.94869       57.89176       94.29776
O         44.67943       59.47681       92.92920
H         45.49143       56.72113       95.54314
H         46.43789       59.20045       97.04634
H         46.66738       59.47642       94.63780
H         45.40047       60.56696       95.28947
N         43.76110       57.64281       97.66347
C         42.53177       57.65752       98.44306
C         41.25820       57.89465       97.64420
O         40.20094       57.88741       98.25478
H         44.23966       56.73591       97.58421
H         42.62479       58.40874       99.25792
H         42.41458       56.66065       98.91977
N         41.26754       58.10915       96.29739
C         40.06722       58.35044       95.49362
C         40.01335       57.42107       94.28234
O         40.93163       56.64379       94.07923
C         40.04296       59.83110       95.05118
C         41.29306       60.26412       94.25963
C         41.23459       61.69784       93.79701
N         42.28771       62.22942       93.13603
O         40.24900       62.38789       94.01541
H         42.16681       58.13530       95.81566
H         39.15060       58.17140       96.09616
H         39.96751       60.46623       95.96108
H         39.13432       60.01594       94.44015
H         41.42276       59.61386       93.36798
H         42.18618       60.16835       94.91020
H         43.13002       61.66584       92.95141
H         42.26574       63.20817       92.81499
N         38.95601       57.48248       93.41303
C         38.87451       56.70393       92.17951
C         38.86969       57.65249       90.99114
O         37.92021       58.40333       90.81993
C         37.61398       55.78661       92.18688
C         37.33968       55.13975       90.81505
C         37.76772       54.67375       93.23394
H         38.18444       58.13416       93.61350
H         39.75956       56.05148       92.07850
H         36.72179       56.40123       92.44075
H         37.12243       55.91602       90.05349
H         38.20321       54.53021       90.47779
H         36.43825       54.49237       90.86642
H         36.85320       54.04258       93.25978
H         38.63288       54.02227       92.97878
H         37.92541       55.09855       94.24599
N         39.91545       57.64626       90.11254
C         39.92703       58.41450       88.86854
C         39.09007       57.68593       87.82276
O         38.62877       56.59122       88.09127
C         41.39789       58.57627       88.40895
C         41.62613       59.41542       87.18008
N         41.26214       60.71789       87.15267
O         42.17575       58.92129       86.20742
H         40.72223       57.03714       90.31593
H         39.51093       59.42663       89.06382
H         41.83936       57.56551       88.25098
H         41.94467       59.08706       89.22245
H         40.81617       61.15848       87.96978
H         41.43578       61.28969       86.31291
N         38.84607       58.23509       86.60340
C         38.11484       57.55077       85.53728
C         38.87072       56.31515       85.06582
O         38.27470       55.25301       84.96066
C         37.86982       58.54157       84.38177
C         37.01559       57.95442       83.28548
C         35.64342       58.25022       83.22827
C         37.57855       57.11671       82.30821
C         34.84626       57.71127       82.21567
C         36.78144       56.58804       81.28885
C         35.41088       56.88291       81.24080
O         34.62945       56.38008       80.26428
H         39.18678       59.18951       86.42476
H         37.10874       57.25156       85.91123
H         38.81505       58.94527       83.95709
H         37.32645       59.40396       84.82860
H         35.18704       58.88877       83.97469
H         38.63589       56.88380       82.32657
H         33.78849       57.94056       82.18869
H         37.23037       55.95168       80.53684
H         34.98189       55.81098       79.56548
N         40.20342       56.39322       84.79642
C         41.04603       55.28115       84.34925
C         40.84491       54.04648       85.21683
O         40.53154       52.99021       84.68541
C         42.51605       55.77017       84.34102
C         43.54277       54.72788       83.88200
C         44.90036       55.36584       83.74704
O         45.93234       54.94275       84.49958
O         45.07474       56.27125       82.94600
H         40.65311       57.30648       84.95507
H         40.76583       55.00932       83.30711
H         42.80480       56.12472       85.35660
H         42.56182       56.63927       83.64711
H         43.25306       54.31024       82.89524
H         43.58731       53.90086       84.62396
N         40.95571       54.12631       86.56614
C         40.70263       53.00536       87.47353
C         39.27411       52.50326       87.33723
O         39.07095       51.30945       87.16649
C         40.91293       53.45886       88.92548
C         42.36843       53.86285       89.20612
C         42.50327       54.50972       90.54687
O         43.67441       55.04742       90.90515
O         41.54434       54.63296       91.28792
H         41.19185       55.04919       86.96049
H         41.40900       52.16956       87.26730
H         40.63501       52.64307       89.63107
H         40.24495       54.32925       89.11307
H         42.71357       54.61359       88.46819
H         43.03264       52.97618       89.13813
N         38.23191       53.37235       87.41479
C         36.84773       52.96337       87.35717
H         36.19298       53.86223       87.38045
H         36.64757       52.40209       86.42125
H         36.60842       52.33286       88.23895
H         38.42980       54.37061       87.50963
Ca        43.63031       56.33619       92.73205
O         41.52163       53.81467       94.06049
H         41.55112       53.16019       93.32260
H         40.83673       53.46103       94.67983
O         43.60266       57.85666       90.46776
H         43.06092       58.37809       91.11381
H         44.34737       58.45729       90.22142
O         43.08054       55.35980       95.72416
H         42.56713       55.04735       96.51019
H         43.98535       54.98409       95.85540

Ca 1.0



