%chk=holoCaM.loop1.water2.frame493.chk
%nprocshared=20
%mem=10GB
%nosave
#b3lyp/svp scf=(tight,noincore,xqc) Test 
#IOP(5/87=12) Density=Current Pop=(MK,readradii) iop(6/33=2) iop(6/42=6)

holoCaM.loop1.water2.frame493 

   0  1 
C        -15.13987       96.66259       11.57606
C        -16.02689       97.77767       12.05360
O        -17.19810       97.79972       11.71177
H        -14.11131       96.75987       11.98758
H        -15.55282       95.68674       11.90275
H        -15.07050       96.68681       10.46844
N        -15.50703       98.76705       12.82394
C        -16.24183       99.92005       13.32547
C        -15.73669      101.10221       12.51523
O        -15.04396      101.96525       13.03072
C        -15.99729       99.96570       14.85150
C        -16.58170      101.09648       15.65511
O        -15.81499      101.81845       16.27008
O        -17.90702      101.21575       15.88796
H        -14.49700       98.73388       13.03641
H        -17.33281       99.83445       13.15449
H        -14.89735       99.97854       15.01274
H        -16.38801       99.02460       15.29714
N        -16.00158      101.12129       11.17173
C        -15.46291      102.09664       10.21813
C        -16.07357      103.49390       10.35727
O        -15.60357      104.39645        9.67855
C        -15.69175      101.60573        8.76580
C        -15.04849      100.23188        8.47831
C        -15.40043       99.75053        7.06186
C        -14.95720       98.30196        6.78776
N        -13.50301       98.14438        6.77978
H        -16.57358      100.34762       10.80344
H        -14.36458      102.16650       10.38249
H        -15.26572      102.34358        8.04980
H        -16.78834      101.54048        8.58828
H        -15.43472       99.47350        9.18793
H        -13.94775      100.30287        8.60903
H        -14.97077      100.43785        6.30089
H        -16.50761       99.76725        6.95869
H        -15.35300       98.00024        5.79275
H        -15.40564       97.62438        7.54890
H        -13.27608       97.14653        6.56330
H        -13.08190       98.75229        6.04055
H        -13.09663       98.37700        7.71305
N        -17.10550      103.75116       11.21029
C        -17.67316      105.08751       11.44068
C        -17.25403      105.63109       12.81147
O        -17.53599      106.78587       13.09700
C        -19.21525      105.09656       11.21146
C        -19.97463      104.13863       12.09198
O        -21.17987      103.99245       11.97020
O        -19.28787      103.43077       12.99653
H        -17.46310      102.96411       11.75835
H        -17.24138      105.80559       10.71100
H        -19.40794      104.81015       10.15523
H        -19.61213      106.12288       11.36950
N        -16.50208      104.88212       13.67006
C        -15.87054      105.38027       14.87750
C        -16.84015      105.82559       15.93429
O        -16.73265      106.94897       16.40405
H        -16.28811      103.91065       13.43728
H        -15.16794      106.20028       14.61579
H        -15.26793      104.55448       15.31869
N        -17.78640      104.96623       16.39276
C        -18.67350      105.25460       17.51328
C        -18.50275      104.21647       18.63146
O        -19.27124      104.24516       19.58248
C        -20.12200      105.40648       17.00469
C        -20.62437      104.25096       16.19427
O        -20.69742      103.02450       16.72828
O        -20.99198      104.42815       15.04487
H        -17.87013      104.04338       15.93759
H        -18.43350      106.23661       17.97801
H        -20.16009      106.31568       16.36263
H        -20.80308      105.57989       17.86472
N        -17.46036      103.32833       18.62864
C        -17.16979      102.38615       19.70333
C        -18.12076      101.20643       19.81622
O        -17.89274      100.37961       20.68767
H        -16.76427      103.37778       17.87640
H        -17.12606      102.93541       20.66912
H        -16.16161      101.95366       19.52043
N        -19.19831      101.05294       18.99790
C        -20.15377       99.95246       19.09529
C        -20.33746       99.26234       17.74962
O        -20.62744       99.91548       16.75699
C        -21.51380      100.46735       19.62712
C        -21.45433      100.71739       21.13492
O        -21.90159      101.65342       18.98833
H        -19.38331      101.76842       18.28915
H        -19.81206       99.18092       19.82018
H        -22.29527       99.68287       19.49082
H        -22.20359      101.39886       18.08342
H        -21.21653       99.76730       21.66296
H        -20.68439      101.47459       21.38857
H        -22.44418      101.06781       21.49630
N        -20.25373       97.90388       17.68023
C        -20.56921       97.11698       16.49412
C        -22.06797       96.83673       16.45299
O        -22.63445       96.36476       17.42925
C        -19.66944       95.83876       16.45648
C        -18.22073       96.27914       16.09532
C        -20.19033       94.78711       15.45837
C        -17.19717       95.14621       16.02208
H        -20.09704       97.38402       18.55763
H        -20.32943       97.69145       15.57502
H        -19.68882       95.34863       17.45534
H        -17.86365       97.01174       16.85063
H        -18.22655       96.78613       15.10324
H        -19.57770       93.86417       15.49686
H        -21.21967       94.46954       15.72542
H        -20.18186       95.18014       14.42797
H        -17.13317       94.61649       16.99410
H        -17.44711       94.42656       15.21567
H        -16.20154       95.57378       15.77617
N        -22.74927       97.06263       15.29099
C        -24.16989       96.81078       15.06854
C        -24.33258       95.54297       14.25012
O        -23.34164       94.87880       13.99569
C        -24.82142       98.02878       14.35555
C        -24.78989       99.29077       15.22510
O        -24.23438       98.25411       13.09391
H        -22.20337       97.35713       14.47169
H        -24.69852       96.63361       16.03142
H        -25.89707       97.82566       14.17865
H        -23.41052       98.79199       13.21782
H        -25.34477       99.11374       16.17063
H        -23.74551       99.57429       15.46838
H        -25.27887      100.12786       14.68208
N        -25.55296       95.10628       13.84174
C        -25.75127       93.83955       13.13952
C        -25.00617       93.81593       11.80344
O        -24.22716       92.90343       11.57552
C        -27.26158       93.56318       12.93733
C        -27.50802       92.12665       12.46584
O        -27.93444       93.73755       14.16030
H        -26.38023       95.67516       14.07958
H        -25.36034       93.02690       13.79446
H        -27.65442       94.28289       12.17878
H        -28.80524       94.17065       13.95809
H        -27.13164       91.41062       13.23011
H        -28.59740       91.95493       12.33828
H        -26.99899       91.92368       11.50180
N        -25.19506       94.81000       10.88598
C        -24.53801       94.86524        9.57513
C        -23.02947       94.76542        9.70550
O        -22.43565       93.92505        9.04220
C        -24.95798       96.16568        8.84500
C        -24.33412       96.32259        7.44155
C        -24.82691       97.59100        6.71117
C        -26.31647       97.57818        6.30444
N        -26.60601       96.56340        5.28791
H        -25.83180       95.57867       11.14429
H        -24.88890       94.01015        8.95512
H        -24.67580       97.05019        9.45883
H        -26.06257       96.14033        8.75543
H        -24.52738       95.42423        6.82102
H        -23.23260       96.41368        7.56118
H        -24.22477       97.73389        5.78748
H        -24.64095       98.46838        7.36843
H        -26.56476       98.57567        5.87879
H        -26.97319       97.43154        7.18679
H        -26.02637       96.73719        4.43432
H        -26.42428       95.60203        5.65150
H        -27.61513       96.62644        5.02121
N        -22.34852       95.57006       10.56350
C        -20.89856       95.51033       10.74033
C        -20.46364       94.09718       11.11320
O        -19.64485       93.52760       10.40568
C        -20.44078       96.55418       11.78444
C        -20.72131       97.98777       11.28960
C        -20.23658       99.03769       12.24269
O        -19.43437       99.87530       11.86579
O        -20.72070       99.10104       13.49498
H        -22.89975       96.23013       11.13260
H        -20.39865       95.76873        9.77951
H        -19.34914       96.43911       11.95243
H        -20.96510       96.38111       12.74416
H        -21.80864       98.14683       11.14827
H        -20.21687       98.13493       10.30999
N        -21.02054       93.45140       12.17180
C        -20.73676       92.07693       12.53215
H        -20.37177       92.03457       13.57895
H        -21.67456       91.48383       12.46064
H        -19.98081       91.61013       11.86772
H        -21.71605       93.94322       12.73084
Ca       -19.45275      101.67184       14.33804
O        -23.18160      102.12341       15.63925
H        -23.62387      102.17886       16.52187
H        -23.92347      102.23540       14.99621
O        -22.93998      101.37195       12.63144
H        -22.20083      101.54432       11.99670
H        -23.49792      102.18902       12.59359

Ca 1.0



