%chk=holoCaM-CaMKII.loop4.water2.frame66.chk
%nprocshared=20
%mem=10GB
%nosave
#b3lyp/svp scf=(tight,noincore,xqc) Test 
#IOP(5/87=12) Density=Current Pop=(MK,readradii) iop(6/33=2) iop(6/42=6)

holoCaM-CaMKII.loop4.water2.frame66 

   -3  1 
C         83.48202       48.47025       59.40991
C         84.88762       48.29672       58.92174
O         85.60382       49.27781       58.78723
H         82.77031       48.04656       58.67071
H         83.36475       47.93402       60.37559
H         83.24738       49.54409       59.56580
N         85.34407       47.05132       58.62550
C         86.70468       46.76371       58.20119
C         86.68791       46.33330       56.74052
O         85.94209       45.43470       56.37763
C         87.29793       45.73079       59.17160
C         88.70634       45.36336       58.83792
O         89.02246       44.07212       58.67008
O         89.57206       46.21674       58.74876
H         84.68971       46.25663       58.70943
H         87.33859       47.67363       58.28280
H         86.67650       44.80913       59.18799
H         87.29381       46.17011       60.19398
N         87.47932       46.99037       55.84199
C         87.42002       46.84011       54.38748
C         88.63978       46.09626       53.83485
O         88.58957       45.68599       52.68343
C         87.27919       48.28139       53.77268
C         85.94624       48.92947       54.24090
C         87.41038       48.31857       52.23799
C         85.77284       50.39630       53.82827
H         88.13740       47.68739       56.20946
H         86.54241       46.21281       54.11430
H         88.12254       48.89366       54.16565
H         85.89747       48.90853       55.35087
H         85.08913       48.34248       53.84649
H         88.40686       47.95276       51.91856
H         86.61358       47.71889       51.75421
H         87.37415       49.35976       51.86144
H         84.82229       50.78574       54.24898
H         86.60217       51.01914       54.21588
H         85.72037       50.51389       52.72858
N         89.75654       45.87322       54.58129
C         90.93969       45.15956       54.08741
C         91.26378       43.91382       54.92171
O         92.20965       43.21631       54.58285
C         92.15945       46.11095       53.95881
C         92.58617       46.81314       55.22270
O         91.81323       46.76028       56.32109
O         93.62223       47.45716       55.23640
H         89.76603       46.23624       55.53799
H         90.75531       44.78105       53.05761
H         91.94394       46.88822       53.19333
H         93.01495       45.50751       53.58246
N         90.48785       43.52810       55.97315
C         90.65599       42.27468       56.69497
C         91.90762       42.17008       57.54503
O         92.59952       41.16779       57.44426
H         89.66973       44.09509       56.23050
H         90.58860       41.42162       55.98579
H         89.80115       42.16261       57.39206
N         92.21166       43.12617       58.46687
C         93.23833       42.97495       59.50454
C         92.63292       43.16948       60.89556
O         93.38141       43.25780       61.85914
C         94.46153       43.87638       59.22798
C         94.10900       45.27977       58.87304
O         94.33392       45.66765       57.73700
O         93.49591       46.11320       59.72847
H         91.64948       43.99163       58.47552
H         93.65947       41.94561       59.51269
H         94.97778       43.44067       58.34296
H         95.18378       43.85103       60.07155
N         91.28077       43.12920       61.08988
C         90.64977       43.17077       62.39735
C         90.63193       44.52958       63.05501
O         90.05341       44.60879       64.13179
H         90.65470       42.95083       60.29465
H         91.12202       42.41820       63.06572
H         89.58273       42.88264       62.27322
N         91.19810       45.64256       62.50153
C         91.09865       46.95743       63.12630
C         90.45296       47.96389       62.19165
O         90.21655       47.66576       61.02774
C         92.48997       47.44998       63.58645
C         93.09665       46.51060       64.64144
C         94.33967       47.09245       65.26767
N         95.44133       47.35918       64.52927
O         94.35050       47.32256       66.46816
H         91.70940       45.57124       61.60995
H         90.44761       46.91232       64.02686
H         92.37693       48.45240       64.05225
H         93.17666       47.54676       62.71703
H         93.33185       45.52392       64.18760
H         92.34613       46.35361       65.44750
H         95.46090       47.16928       63.51762
H         96.28163       47.75640       64.97646
N         90.14323       49.20013       62.66125
C         89.60318       50.28758       61.86051
C         90.63678       51.38758       61.85538
O         91.01271       51.85626       62.92386
C         88.23975       50.76760       62.44370
C         87.78288       52.11511       61.85238
C         87.14902       49.71814       62.17743
H         90.33419       49.40457       63.65596
H         89.42815       49.97486       60.80910
H         88.34410       50.91591       63.54162
H         88.50632       52.91767       62.10625
H         87.67911       52.05648       60.74981
H         86.80770       52.41782       62.29081
H         87.42028       48.73770       62.61856
H         86.18199       50.04531       62.61696
H         87.00371       49.58731       61.08257
N         91.10928       51.87986       60.67558
C         92.02254       53.00923       60.61167
C         91.23396       54.28899       60.42253
O         90.01321       54.24167       60.35219
C         93.15361       52.80955       59.56504
C         92.79315       53.06948       58.11663
N         91.95720       52.26882       57.42604
O         93.30967       54.01717       57.54284
H         90.70218       51.52037       59.80573
H         92.54216       53.10157       61.59077
H         93.61065       51.80385       59.67514
H         93.95000       53.54220       59.81695
H         91.53779       51.43768       57.85330
H         91.76141       52.47025       56.43430
N         91.87376       55.48293       60.35381
C         91.18539       56.76145       60.22826
C         90.27729       56.78430       59.01061
O         89.12801       57.18099       59.13125
C         92.23111       57.88795       60.12541
C         91.59954       59.25509       60.13960
C         90.91515       59.70458       61.28159
C         91.70002       60.09668       59.02123
C         90.34438       60.97890       61.30536
C         91.12451       61.36981       59.04549
C         90.44722       61.81633       60.19012
O         89.89580       63.04546       60.23062
H         92.90410       55.48192       60.40080
H         90.57250       56.92490       61.14261
H         92.82539       57.73573       59.19701
H         92.93479       57.83035       60.98425
H         90.83194       59.07275       62.15738
H         92.22089       59.76759       58.13051
H         89.82563       61.31617       62.19388
H         91.20873       62.00839       58.17569
H         89.95187       63.65816       59.48376
N         90.74668       56.37762       57.80128
C         89.95867       56.38358       56.57370
C         88.74212       55.45882       56.68390
O         87.63414       55.92701       56.46170
C         90.88813       56.03639       55.39011
C         90.26617       56.33800       54.01914
C         91.26505       56.18625       52.89832
O         90.92615       56.43711       51.75331
O         92.53698       55.80707       53.13988
H         91.72837       56.06742       57.75410
H         89.61052       57.42729       56.40095
H         91.23145       54.98018       55.45091
H         91.77970       56.69840       55.48009
H         89.91694       57.39416       54.00862
H         89.39792       55.67061       53.83883
N         88.86509       54.15189       57.07502
C         87.71772       53.24461       57.25753
C         86.72863       53.72816       58.31555
O         85.64255       53.16833       58.38254
C         88.19299       51.83481       57.68624
C         88.91331       51.08296       56.56217
C         89.55737       49.80552       57.02790
O         90.17859       49.12650       56.22793
O         89.48664       49.40904       58.31344
H         89.81287       53.80057       57.26871
H         87.16409       53.17737       56.29439
H         87.33438       51.20044       57.99893
H         88.85680       51.96297       58.56612
H         89.69476       51.71948       56.11621
H         88.18061       50.84187       55.77104
N         87.03138       54.72655       59.18896
C         86.11810       55.22784       60.19428
H         85.12893       54.72630       60.15903
H         86.55994       55.07368       61.20072
H         85.96515       56.31590       60.03350
H         87.96073       55.14740       59.16486
Ca        92.19939       47.37469       58.44212
O         93.61455       49.76854       57.30257
H         92.96357       49.57880       56.58179
H         94.10826       50.56533       56.98589
O         93.82588       49.12461       60.19254
H         94.67263       48.68765       59.92234
H         93.96699       49.38460       61.13649

Ca 1.0



