%chk=holoCaM-CaMKII.loop3.water2.frame340.chk
%nprocshared=20
%mem=10GB
%nosave
#b3lyp/svp scf=(tight,noincore,xqc) Test 
#IOP(5/87=12) Density=Current Pop=(MK,readradii) iop(6/33=2) iop(6/42=6)

holoCaM-CaMKII.loop3.water2.frame340 

   0  1 
C         12.90650       51.66212       63.33459
C         11.62187       51.67875       62.56048
O         11.46954       52.48792       61.65839
H         13.60712       52.43899       62.96395
H         12.69668       51.84781       64.40940
H         13.38601       50.66559       63.22924
N         10.64071       50.79848       62.88812
C          9.35425       50.68777       62.21443
C          8.28333       51.13440       63.20264
O          8.27823       50.68321       64.33942
C          9.21004       49.23560       61.70078
C          7.90172       48.92116       61.02231
O          7.20295       48.03181       61.47039
O          7.48143       49.53260       59.90278
H         10.81170       50.16293       63.68421
H          9.30396       51.35252       61.32524
H          9.33180       48.54423       62.56299
H         10.02975       49.03048       60.97972
N          7.37164       52.07531       62.82670
C          6.39783       52.72306       63.71239
C          5.57925       51.71149       64.51060
O          5.45771       51.85545       65.71849
C          5.48947       53.63775       62.84822
C          4.66481       54.65801       63.64747
C          3.85935       55.55196       62.68558
C          3.18967       56.72543       63.41383
N          2.43410       57.55865       62.47623
H          7.38980       52.37050       61.83817
H          6.95696       53.37122       64.42369
H          4.83046       53.01429       62.20459
H          6.14624       54.24161       62.18240
H          5.37333       55.29356       64.22319
H          3.97755       54.15177       64.35890
H          3.09114       54.93506       62.16914
H          4.54193       55.97922       61.91760
H          3.97660       57.34789       63.89653
H          2.50634       56.34604       64.20441
H          2.02913       58.37491       62.98928
H          3.06210       57.91734       61.71992
H          1.65491       57.00515       62.05169
N          5.04610       50.62968       63.88448
C          4.24733       49.57796       64.53560
C          4.96204       48.22641       64.60209
O          4.38375       47.30702       65.16613
C          2.86292       49.41807       63.82724
C          2.95132       49.09436       62.34795
O          1.94881       49.04101       61.65670
O          4.17019       49.02642       61.79741
H          5.27313       50.56477       62.88900
H          4.05303       49.85915       65.59366
H          2.31681       50.37987       63.93008
H          2.26798       48.63113       64.33948
N          6.20663       48.01421       64.08175
C          6.89051       46.72562       64.17417
C          6.17265       45.57651       63.47223
O          6.54208       44.43789       63.72147
H          6.70754       48.79629       63.64752
H          6.97957       46.47449       65.25257
H          7.92276       46.79974       63.76695
N          5.12766       45.78166       62.61626
C          4.28220       44.70611       62.09283
C          4.96922       43.70468       61.16818
O          4.29629       42.76539       60.76285
C          3.07285       45.29502       61.32425
C          3.46939       45.83453       59.96526
N          2.97165       45.28017       58.83467
O          4.26798       46.75253       59.88226
H          4.85967       46.74784       62.40176
H          3.88286       44.16283       62.97796
H          2.57774       46.08589       61.92772
H          2.32720       44.48335       61.18000
H          2.31058       44.49064       58.87548
H          3.26071       45.63236       57.91121
N          6.25971       43.84109       60.75120
C          6.85804       42.95112       59.77112
C          7.59207       43.74801       58.72228
O          8.79115       43.54826       58.59094
H          6.84666       44.60092       61.12039
H          6.10139       42.29891       59.28049
H          7.58491       42.28953       60.28934
N          6.95224       44.67111       57.94172
C          7.65619       45.46168       56.92769
C          7.56706       46.95389       57.20886
O          6.80856       47.36274       58.07494
C          7.14337       45.08821       55.52233
C          5.67998       45.39469       55.29849
C          5.27595       46.67629       54.89000
C          4.70902       44.39262       55.46806
C          3.92425       46.95002       54.65496
C          3.35729       44.67142       55.24315
C          2.95979       45.94832       54.83428
O          1.65326       46.19905       54.61414
H          5.93821       44.81212       58.06822
H          8.73832       45.21070       56.94937
H          7.30810       43.99546       55.39632
H          7.74641       45.57887       54.72761
H          6.00869       47.45918       54.73953
H          4.99707       43.39729       55.78242
H          3.62762       47.93985       54.33129
H          2.61813       43.89304       55.38540
H          1.33684       47.06660       54.32408
N          8.37868       47.81936       56.52816
C          8.40166       49.26647       56.74244
C          8.19253       50.00148       55.42583
O          8.80325       49.64435       54.42920
C          9.70571       49.71945       57.47340
C          9.60856       51.23213       57.82163
C         10.99093       49.39052       56.69356
C         10.76484       51.75956       58.66438
H          9.04429       47.42184       55.84942
H          7.57473       49.55315       57.42364
H          9.75170       49.15723       58.43268
H          8.67835       51.39902       58.40734
H          9.55055       51.84441       56.89882
H         11.03424       49.94972       55.73726
H         11.88747       49.64873       57.29350
H         11.05927       48.30314       56.49131
H         11.71958       51.73933       58.10279
H         10.55883       52.81481       58.94416
H         10.86781       51.15261       59.58397
N          7.37506       51.09227       55.38356
C          7.10926       51.88080       54.18696
C          7.69776       53.28128       54.32959
O          8.33260       53.57264       55.33102
C          5.59308       51.91083       53.94777
O          5.11687       50.59943       53.77949
H          6.93280       51.40599       56.25448
H          7.59267       51.42223       53.29684
H          5.35686       52.53026       53.05290
H          5.07431       52.37183       54.81587
H          4.68109       50.54574       52.88941
N          7.57655       54.18230       53.31190
C          8.26469       55.47063       53.28732
C          7.87973       56.40265       54.42184
O          8.76980       56.79611       55.16460
C          8.02363       56.17523       51.94723
H          7.04053       53.90371       52.47742
H          9.35863       55.27213       53.35455
H          8.59416       57.12803       51.90789
H          8.36907       55.52782       51.11350
H          6.94469       56.39467       51.80176
N          6.60073       56.85343       54.59245
C          6.27059       57.86105       55.60180
C          6.56476       57.39840       57.01600
O          6.66876       58.23993       57.89800
C          4.80356       58.28867       55.50222
H          5.86364       56.51481       53.95502
H          6.90597       58.75127       55.39406
H          4.13548       57.42364       55.70499
H          4.58236       59.09153       56.23856
H          4.58892       58.67905       54.48534
N          6.68226       56.07690       57.31620
C          7.02259       55.60248       58.64864
C          8.46794       55.94916       58.93655
O          8.73538       56.60989       59.93025
C          6.75876       54.09031       58.77081
C          5.26083       53.80203       58.54512
C          4.92683       52.37031       58.78302
O          4.01337       52.03626       59.71421
O          5.45884       51.50263       58.11695
H          6.51728       55.38231       56.57399
H          6.36242       56.08793       59.40420
H          7.03643       53.76605       59.79732
H          7.37491       53.51869       58.04242
H          4.96791       54.05198       57.50367
H          4.65230       54.42100       59.23895
N          9.44711       55.57714       58.06382
C         10.84268       55.93254       58.21683
H         11.46217       55.01279       58.21457
H         11.15021       56.56909       57.35945
H         11.03757       56.49249       59.15477
H          9.18992       55.04710       57.22002
Ca         5.22519       49.43029       59.86978
O          4.32234       49.36183       56.63839
H          5.17032       49.35967       56.12958
H          3.85655       50.18506       56.34561
O          2.31540       48.59706       58.50221
H          2.04843       47.92166       57.82958
H          1.56813       48.60801       59.14943

Ca 1.0



