%chk=holoCaM-CaMKII.loop2.water2.frame243.chk
%nprocshared=20
%mem=10GB
%nosave
#b3lyp/svp scf=(tight,noincore,xqc) Test 
#IOP(5/87=12) Density=Current Pop=(MK,readradii) iop(6/33=2) iop(6/42=6)

holoCaM-CaMKII.loop2.water2.frame243 

   -2  1 
C         86.21141      118.78418       42.55190
C         86.84976      120.12930       42.74568
O         87.01665      120.56248       43.87341
H         85.28583      118.88834       41.94879
H         86.91879      118.11697       42.01258
H         85.96134      118.31546       43.52698
N         87.25688      120.83903       41.66277
C         87.98291      122.10338       41.74045
C         87.18454      123.22703       42.39095
O         85.97929      123.30468       42.19840
C         88.39039      122.52386       40.31153
C         89.15255      123.81215       40.28370
O         88.73426      124.75591       39.63315
O         90.28326      123.93997       40.99813
H         87.08886      120.42107       40.73330
H         88.91346      121.93691       42.32686
H         87.48038      122.62588       39.67932
H         89.02969      121.73072       39.87043
N         87.85959      124.24218       43.01606
C         87.23896      125.49345       43.44049
C         88.31483      126.56138       43.69280
O         88.37102      127.13512       44.77110
C         86.32255      125.26471       44.65367
H         88.88428      124.16257       43.09653
H         86.62394      125.88261       42.59930
H         86.90743      124.88263       45.51731
H         85.82781      126.21632       44.94422
H         85.52533      124.53020       44.41540
N         89.19142      126.87854       42.68700
C         90.23660      127.92029       42.75879
C         91.08182      128.11100       41.46182
O         91.82865      129.07953       41.42719
C         91.22074      127.68786       43.93411
C         91.82076      126.32468       43.86483
O         92.27363      125.89337       42.82490
O         91.77746      125.51679       44.92024
H         89.05291      126.35408       41.82179
H         89.72003      128.88888       42.93505
H         90.72062      127.79749       44.91868
H         92.02663      128.45127       43.90456
N         91.04666      127.27307       40.37751
C         91.78036      127.49529       39.13142
C         93.28644      127.23530       39.15057
O         93.88676      127.34379       38.09091
H         90.43019      126.46132       40.36783
H         91.56799      128.51969       38.75800
H         91.37722      126.78156       38.37916
N         93.96991      126.87611       40.27304
C         95.41201      126.59968       40.30962
C         95.84836      125.31788       39.57438
O         97.03930      125.03688       39.57559
C         95.91003      126.60000       41.77761
C         95.34924      125.52238       42.67278
N         95.66310      125.52387       43.98729
O         94.60740      124.65877       42.23222
H         93.45820      126.86511       41.15353
H         95.93430      127.45642       39.82875
H         95.63561      127.58246       42.22113
H         97.01875      126.52254       41.79633
H         96.27903      126.24930       44.38194
H         95.27666      124.81012       44.61670
N         94.97445      124.51724       38.89459
C         95.37826      123.35664       38.10712
C         95.81047      122.12125       38.88672
O         96.14741      121.14540       38.23296
H         93.98639      124.78540       38.83688
H         96.18825      123.66000       37.40810
H         94.51107      123.03750       37.48895
N         95.82212      122.06061       40.25049
C         96.23934      120.87122       41.00342
C         95.12166      120.38149       41.92039
O         94.05262      120.97101       41.93993
C         97.52127      121.20065       41.81092
C         98.69199      121.52018       40.87891
O         97.30525      122.28995       42.67120
H         95.54488      122.88873       40.78873
H         96.47902      120.02546       40.32215
H         97.85361      120.31655       42.40037
H         96.83486      121.93754       43.47121
H         98.47452      122.41180       40.25495
H         99.60597      121.71915       41.47729
H         98.89452      120.65361       40.21216
N         95.33128      119.30623       42.74055
C         94.35035      118.80960       43.69952
C         94.82060      119.21263       45.08514
O         95.94562      118.90532       45.45085
C         94.18055      117.26078       43.59560
C         93.77942      116.84074       42.15864
C         93.13381      116.77123       44.62380
C         93.67634      115.32257       41.96969
H         96.25287      118.84744       42.73614
H         93.35671      119.26714       43.51215
H         95.15644      116.78254       43.83636
H         94.55594      117.20092       41.45079
H         92.80977      117.30725       41.87935
H         92.13647      117.20902       44.40476
H         93.04750      115.66694       44.62895
H         93.42675      117.05177       45.65443
H         93.45399      115.09543       40.90623
H         94.63441      114.83170       42.24420
H         92.85511      114.88843       42.57517
N         93.97645      119.87819       45.92249
C         94.33425      120.29149       47.27494
C         93.69905      119.34113       48.26576
O         93.02674      118.41583       47.85118
C         93.90075      121.75149       47.50201
C         94.63697      122.68563       46.58393
O         94.54737      122.55993       45.37334
O         95.40347      123.66736       47.09570
H         93.00913      120.04625       45.61842
H         95.43150      120.20920       47.43579
H         94.11404      122.05427       48.54869
H         92.80569      121.85150       47.33087
N         93.94750      119.45437       49.60062
C         93.51489      118.43331       50.54613
C         91.99981      118.24695       50.61504
O         91.57802      117.10480       50.47393
C         94.09615      118.67158       51.95539
C         93.88837      117.43484       52.80245
C         93.05121      117.45998       53.92877
C         94.52369      116.22826       52.44660
C         92.84331      116.29370       54.67479
C         94.31406      115.06901       53.19382
C         93.47171      115.09995       54.30590
H         94.53677      120.22950       49.93626
H         93.96187      117.48233       50.18354
H         93.62459      119.56614       52.41054
H         95.18982      118.86217       51.89621
H         92.54897      118.37371       54.21970
H         95.17992      116.18099       51.58614
H         92.18976      116.31253       55.53644
H         94.80257      114.14668       52.90564
H         93.30665      114.19781       54.88006
N         91.10200      119.26089       50.83187
C         89.66498      119.04370       50.95867
C         89.06896      118.45011       49.69245
O         88.17218      117.62674       49.79674
C         89.11765      120.43081       51.31949
C         90.09614      121.36683       50.64899
C         91.43072      120.67438       50.92190
H         89.41719      118.36060       51.80243
H         88.04192      120.59646       51.09537
H         89.26659      120.57877       52.41388
H         89.89008      121.33901       49.55706
H         90.05134      122.42650       50.98011
H         92.14194      121.02805       50.15155
H         91.80293      120.89237       51.94506
N         89.57321      118.75914       48.46882
C         89.09593      118.15401       47.22789
C         89.32410      116.65945       47.25293
O         88.38396      115.90563       47.04324
C         89.83234      118.75638       46.02145
C         89.54780      120.25269       45.91913
C         90.29933      120.91287       44.82384
O         90.21107      122.23727       44.76707
O         91.06969      120.31280       44.09293
H         90.35712      119.42319       48.42669
H         88.01033      118.36559       47.09602
H         89.48789      118.26680       45.08360
H         90.92710      118.59359       46.12746
H         89.86838      120.77423       46.84329
H         88.46482      120.43711       45.79930
N         90.55936      116.16174       47.52341
C         90.84527      114.74864       47.56146
H         91.90686      114.59210       47.85114
H         90.19516      114.25078       48.31088
H         90.67923      114.30620       46.55760
H         91.32547      116.80960       47.73132
Ca        91.99033      123.41831       44.27785
O         91.18851      120.63847       41.12530
H         91.54252      119.78646       41.48298
H         91.23113      120.52993       40.14238
O         92.75373      122.97032       40.22396
H         92.65599      123.93600       40.41950
H         92.38703      122.86066       39.31065

Ca 1.0



