%chk=holoCaM.loop2.water3.frame396.chk
%nprocshared=20
%mem=10GB
%nosave
#b3lyp/svp scf=(tight,noincore,xqc) Test 
#IOP(5/87=12) Density=Current Pop=(MK,readradii) iop(6/33=2) iop(6/42=6)

holoCaM.loop2.water3.frame396 

   -2  1 
C         94.24690       59.94291       95.61217
C         95.33130       60.97239       95.48867
O         95.33470       61.73251       94.53046
H         93.52719       60.02060       94.76966
H         94.69247       58.92714       95.61836
H         93.69272       60.10187       96.56272
N         96.26993       61.08260       96.46713
C         97.28567       62.12437       96.46791
C         98.38500       61.86598       95.44161
O         98.91303       60.76328       95.40626
C         97.90604       62.27910       97.86938
C         98.76442       63.50500       97.84902
O         99.96015       63.42443       98.04025
O         98.19663       64.67343       97.49145
H         96.19481       60.45819       97.28585
H         96.77331       63.08564       96.25596
H         98.48884       61.37244       98.14655
H         97.10490       62.43271       98.62467
N         98.83389       62.87624       94.63513
C         99.89231       62.71672       93.63934
C        101.14599       63.55682       93.92423
O        102.05592       63.49708       93.10848
C         99.31743       63.06832       92.26349
H         98.40381       63.80740       94.72755
H        100.22896       61.65791       93.59516
H        100.07769       62.90855       91.46887
H         98.44696       62.41445       92.04130
H         98.98615       64.12856       92.23712
N        101.30419       64.31408       95.05448
C        102.52648       65.07685       95.35467
C        103.27997       64.49888       96.56878
O        104.31047       65.04509       96.93661
C        102.17860       66.55425       95.60435
C        101.37983       67.18614       94.50425
O        101.87351       67.39332       93.40756
O        100.10315       67.53655       94.74855
H        100.54888       64.33472       95.75035
H        103.22947       65.04197       94.49425
H        103.09494       67.15930       95.77605
H        101.57839       66.61456       96.51796
N        102.85969       63.35983       97.19263
C        103.58458       62.64547       98.23739
C        103.64310       63.28174       99.61783
O        104.71322       63.28385      100.20885
H        102.02219       62.88153       96.83820
H        104.60513       62.38631       97.87982
H        103.04920       61.68473       98.39699
N        102.51880       63.74394      100.23533
C        102.44192       64.10621      101.65633
C        101.16580       63.56111      102.32267
O        100.96521       63.84266      103.49630
C        102.48157       65.63937      101.82422
C        103.79967       66.22238      101.37959
N        104.94726       65.89458      102.02156
O        103.83139       67.01190      100.44828
H        101.67423       63.83467       99.66516
H        103.30650       63.68288      102.21223
H        102.35446       65.91468      102.89391
H        101.63721       66.08993      101.26890
H        104.93868       65.24777      102.82409
H        105.84843       66.29853      101.72713
N        100.24741       62.80141      101.65243
C         98.96647       62.38990      102.20962
C         98.07682       63.58463      102.48979
O         97.50585       63.67363      103.56697
H        100.42257       62.50201      100.68576
H         99.10553       61.76091      103.11595
H         98.44626       61.77299      101.44435
N         97.95162       64.56447      101.55236
C         97.13954       65.77295      101.69562
C         96.35630       65.98730      100.40937
O         96.93595       65.87406       99.34377
C         98.04181       66.98124      102.02095
C         98.63629       66.84493      103.43206
O         99.06801       67.08991      101.07271
H         98.52756       64.48009      100.69999
H         96.41889       65.68615      102.53968
H         97.40891       67.89824      102.00229
H         99.55941       67.92900      101.27294
H         97.82086       66.76656      104.18400
H         99.28223       65.94740      103.50901
H         99.24545       67.73872      103.67968
N         95.03293       66.30360      100.42447
C         94.19218       66.28651       99.22681
C         93.83341       67.69921       98.78436
O         93.36190       68.48609       99.59355
C         92.92439       65.42782       99.51519
C         93.33066       63.99704       99.96457
C         92.00347       65.36877       98.27847
C         92.15563       63.16854      100.48569
H         94.58083       66.50334      101.33014
H         94.72547       65.79485       98.38505
H         92.36824       65.91428      100.34747
H         94.04999       64.05823      100.80817
H         93.83219       63.46111       99.12854
H         91.07394       64.80506       98.48768
H         91.68206       66.38534       97.98226
H         92.52755       64.89266       97.42202
H         91.67948       63.68873      101.34471
H         91.39725       62.98326       99.70068
H         92.52845       62.18321      100.83601
N         93.95834       68.04578       97.46608
C         93.55696       69.33325       96.90401
C         92.24397       69.18121       96.14962
O         91.71180       68.08613       96.08911
C         94.64940       69.84897       95.94027
C         95.97438       70.03496       96.61453
O         96.95019       69.41020       96.22967
O         96.10005       70.91427       97.62632
H         94.27363       67.32665       96.80003
H         93.38446       70.07581       97.71395
H         94.35551       70.82891       95.51024
H         94.76120       69.12549       95.10003
N         91.64014       70.25450       95.57198
C         90.36174       70.18230       94.86762
C         90.39199       69.25474       93.64727
O         89.53866       68.38103       93.59937
C         89.87125       71.60611       94.52324
C         88.50638       71.65816       93.86693
C         87.38729       71.03367       94.45313
C         88.33495       72.37062       92.66669
C         86.13133       71.11333       93.84252
C         87.07388       72.46009       92.06884
C         85.97387       71.82932       92.65402
H         92.09424       71.17648       95.67067
H         89.61473       69.76997       95.58148
H         90.62235       72.12674       93.89334
H         89.79696       72.16800       95.47993
H         87.47787       70.48215       95.37894
H         89.17287       72.87384       92.20105
H         85.27742       70.62483       94.29465
H         86.94866       73.02295       91.15294
H         84.99883       71.89889       92.18881
N         91.31269       69.33693       92.63193
C         91.29737       68.45703       91.46563
C         91.50833       67.00172       91.84986
O         90.84416       66.14622       91.27965
C         92.39804       69.03270       90.56371
C         93.37183       69.63265       91.54864
C         92.43141       70.25924       92.57886
H         90.34470       68.52563       90.89387
H         92.82151       68.32915       89.81429
H         91.96332       69.89787       90.01266
H         93.92690       68.79467       92.01979
H         94.12099       70.33173       91.12059
H         92.99842       70.33948       93.52323
H         92.05846       71.25211       92.24965
N         92.36751       66.64735       92.84201
C         92.57709       65.26781       93.27214
C         91.26819       64.66645       93.75525
O         90.84750       63.65122       93.21865
C         93.66078       65.21932       94.36948
C         95.01923       65.67624       93.79872
C         96.10873       65.73945       94.81966
O         95.87758       65.43960       96.11030
O         97.22227       66.09318       94.47193
H         92.86730       67.39771       93.33829
H         92.94651       64.66116       92.41422
H         93.76881       64.18009       94.75129
H         93.35581       65.87232       95.21443
H         94.94205       66.69217       93.36228
H         95.32745       64.97257       92.99554
N         90.54702       65.26831       94.73730
C         89.26455       64.77259       95.18287
H         88.55225       64.75089       94.33028
H         89.37468       63.75386       95.60792
H         88.85284       65.44675       95.96496
H         90.90394       66.12597       95.16434
Ca        99.09290       66.48795       96.49069
O         99.94372       69.50402       97.27153
H        100.65033       69.09046       97.82731
H        100.43454       69.94111       96.53178
O        101.32696       66.46093       98.89402
H        100.50245       66.98853       99.02065
H        101.01473       65.63743       98.44818
O         97.73628       68.69477       99.04060
H         98.05836       69.35834       99.70050
H         96.75124       68.70936       99.13514

Ca 1.0



