%chk=holoCaM-CaMKII.loop4.water2.frame97.chk
%nprocshared=20
%mem=10GB
%nosave
#b3lyp/svp scf=(tight,noincore,xqc) Test 
#IOP(5/87=12) Density=Current Pop=(MK,readradii) iop(6/33=2) iop(6/42=6)

holoCaM-CaMKII.loop4.water2.frame97 

   -3  1 
C         28.50042       43.46036       42.88176
C         29.90434       42.98987       43.14584
O         30.78483       43.81606       43.32839
H         28.12431       44.03894       43.75063
H         28.48618       44.10404       41.97752
H         27.81148       42.60573       42.70665
N         30.18049       41.65899       43.18831
C         31.51226       41.10379       43.41201
C         32.43964       41.44938       42.25536
O         32.05531       41.23660       41.11335
C         31.39130       39.57803       43.57088
C         32.71576       38.93448       43.83093
O         33.13509       38.07975       43.07171
O         33.44132       39.29028       44.90398
H         29.39333       41.00295       43.06246
H         31.92093       41.49641       44.36666
H         30.93433       39.13702       42.65800
H         30.72943       39.35888       44.43737
N         33.69271       41.95009       42.48386
C         34.60567       42.34457       41.41373
C         35.80606       41.39914       41.36539
O         35.98852       40.75813       40.33885
C         35.03675       43.83765       41.57900
C         33.79352       44.75611       41.73253
C         35.90452       44.27852       40.38137
C         34.12898       46.23025       41.98024
H         34.01496       42.05683       43.45520
H         34.08447       42.26536       40.43219
H         35.64056       43.93321       42.50787
H         33.21280       44.41856       42.61512
H         33.14126       44.67862       40.83552
H         36.27971       45.31300       40.51402
H         36.79970       43.63145       40.27925
H         35.31941       44.22898       39.43745
H         34.78809       46.33957       42.86564
H         34.62391       46.68946       41.10192
H         33.19041       46.79352       42.16924
N         36.68717       41.27735       42.40833
C         37.90154       40.45408       42.31701
C         37.64200       38.94629       42.25044
O         38.60275       38.20103       42.11487
C         38.91446       40.80432       43.43768
C         38.61189       40.29438       44.82443
O         37.55760       39.49893       45.07892
O         39.34734       40.61333       45.74456
H         36.53911       41.85881       43.24564
H         38.41431       40.75620       41.37563
H         39.01910       41.91218       43.46495
H         39.90772       40.38661       43.16486
N         36.38458       38.42120       42.31097
C         36.10597       37.00220       42.17243
C         36.44464       36.20274       43.40827
O         37.18521       35.23568       43.30522
H         35.57122       39.04483       42.38944
H         36.60836       36.60275       41.26413
H         35.01720       36.86866       42.01562
N         35.86847       36.51795       44.60459
C         35.98055       35.69676       45.81034
C         34.60609       35.23212       46.31065
O         34.55157       34.58604       47.34818
C         36.78216       36.43266       46.90925
C         36.19555       37.71194       47.44355
O         36.84996       38.37439       48.41542
O         35.14707       38.16248       47.01851
H         35.28702       37.36655       44.64897
H         36.56285       34.77386       45.59355
H         37.79315       36.65993       46.50811
H         36.91075       35.73782       47.76813
N         33.45970       35.47244       45.60451
C         32.14464       34.99205       46.00435
C         31.48053       35.78888       47.11103
O         30.33644       35.47621       47.41210
H         33.51139       35.93877       44.68949
H         32.19389       33.91063       46.25923
H         31.46745       35.09295       45.12828
N         32.09372       36.82457       47.75419
C         31.41998       37.65521       48.75134
C         31.64161       39.13874       48.47793
O         32.37248       39.48257       47.55843
C         31.83503       37.22746       50.17057
C         33.33636       37.36217       50.46368
C         33.69127       36.88419       51.85367
N         34.97648       36.92391       52.27026
O         32.82914       36.45512       52.60836
H         33.07380       37.03467       47.53963
H         30.32131       37.48912       48.69466
H         31.54424       36.16030       50.29479
H         31.26181       37.82125       50.91507
H         33.63573       38.42565       50.36393
H         33.91396       36.75433       49.73555
H         35.71858       37.27847       51.64989
H         35.22950       36.59649       53.21452
N         30.99065       40.07876       49.22151
C         31.06668       41.51411       48.96356
C         31.55058       42.24028       50.20911
O         30.93761       42.09164       51.25832
C         29.66719       42.03247       48.51913
C         29.67711       43.54725       48.24654
C         29.19924       41.30734       47.24448
H         30.35802       39.76284       49.97317
H         31.76766       41.73089       48.13035
H         28.92814       41.83158       49.32666
H         28.66620       43.88921       47.93702
H         29.95219       44.11438       49.15896
H         30.39450       43.79324       47.43640
H         29.11936       40.21391       47.41646
H         28.19541       41.67228       46.93911
H         29.91084       41.48547       46.40863
N         32.60271       43.10960       50.13721
C         33.03609       43.94755       51.25681
C         32.61508       45.38809       51.01209
O         32.01282       45.66071       49.98799
C         34.55828       43.81284       51.51343
C         35.46328       44.33459       50.41714
N         36.80365       44.33510       50.59695
O         35.00216       44.77019       49.37538
H         33.05127       43.25307       49.22032
H         32.52068       43.63031       52.18974
H         34.80165       42.74609       51.70602
H         34.80584       44.37941       52.43570
H         37.21745       43.98265       51.47206
H         37.42914       44.70338       49.86489
N         32.85561       46.36187       51.93253
C         32.36602       47.73203       51.78400
C         32.94073       48.42101       50.55400
O         32.20920       49.12183       49.86940
C         32.69004       48.55517       53.04950
C         31.86258       49.81750       53.14063
C         30.46314       49.71961       53.25516
C         32.46071       51.08796       53.14931
C         29.67722       50.86577       53.37673
C         31.66912       52.23775       53.27152
C         30.27428       52.12809       53.38866
O         29.49915       53.22350       53.51947
H         33.35650       46.10607       52.79679
H         31.26034       47.67066       51.68701
H         33.78264       48.76522       53.08235
H         32.43687       47.96051       53.95372
H         29.97706       48.75207       53.26405
H         33.53530       51.19038       53.06735
H         28.60250       50.76949       53.47034
H         32.13967       53.21257       53.28148
H         29.86864       54.11711       53.54750
N         34.24478       48.22708       50.20295
C         34.89400       48.83347       49.03894
C         34.06952       48.60579       47.78113
O         33.71896       49.56553       47.10898
C         36.32064       48.23950       48.90699
C         37.15647       48.84651       47.77313
C         38.53930       48.25228       47.76796
O         38.69587       47.05376       47.59267
O         39.61411       49.04086       47.96078
H         34.80092       47.58342       50.78727
H         34.98417       49.92975       49.20529
H         36.25327       47.13896       48.75870
H         36.85999       48.42374       49.86298
H         37.23317       49.94474       47.92297
H         36.67861       48.65119       46.78956
N         33.69365       47.34979       47.43450
C         32.86675       47.02898       46.27400
C         31.49892       47.66631       46.40428
O         31.13019       48.46020       45.55041
C         32.73431       45.49871       46.15425
C         34.10376       44.89155       45.84805
C         34.14318       43.40910       45.90525
O         35.31903       42.84171       45.63239
O         33.17510       42.72845       46.20232
H         34.00196       46.58728       48.05082
H         33.35664       47.40918       45.34765
H         32.03134       45.21989       45.33901
H         32.34986       45.08983       47.11308
H         34.87068       45.23524       46.56993
H         34.42198       45.21333       44.83711
N         30.69663       47.36193       47.45991
C         29.38570       47.93098       47.67741
H         28.63656       47.11262       47.71610
H         29.38169       48.46556       48.65076
H         29.09654       48.64398       46.87864
H         31.02899       46.69113       48.15684
Ca        35.77629       40.68822       45.58617
O         34.79130       40.86991       49.23251
H         35.31857       41.70298       49.31091
H         35.19902       40.26079       49.89739
O         37.32188       42.55484       47.71901
H         37.66413       41.68000       48.03164
H         38.03162       43.20175       47.95744

Ca 1.0



