%chk=holoCaM-CaMKII.loop2.water2.frame209.chk
%nprocshared=20
%mem=10GB
%nosave
#b3lyp/svp scf=(tight,noincore,xqc) Test 
#IOP(5/87=12) Density=Current Pop=(MK,readradii) iop(6/33=2) iop(6/42=6)

holoCaM-CaMKII.loop2.water2.frame209 

   -2  1 
C         21.67702       61.87178       24.27845
C         20.45926       62.25538       25.07346
O         20.13504       61.57337       26.03421
H         22.56556       61.87224       24.94595
H         21.54914       60.86258       23.83857
H         21.87077       62.59524       23.45685
N         19.75905       63.37495       24.74858
C         18.65751       63.89598       25.54833
C         17.42611       62.99408       25.51251
O         16.93230       62.72543       24.42558
C         18.25591       65.28765       25.01028
C         17.37915       66.04048       25.96358
O         16.89452       67.10720       25.62468
O         17.19696       65.59585       27.22083
H         20.08314       63.92831       23.93961
H         19.03411       64.02460       26.58681
H         17.74484       65.16802       24.02956
H         19.15379       65.91981       24.84990
N         16.83882       62.54997       26.66506
C         15.59407       61.77911       26.68740
C         14.45667       62.47691       27.45025
O         13.36029       61.93395       27.44301
C         15.86838       60.40582       27.31104
H         17.28510       62.77947       27.56288
H         15.22844       61.61299       25.65097
H         16.65380       59.87451       26.73239
H         16.21491       60.51817       28.36144
H         14.95033       59.77933       27.30381
N         14.63438       63.63331       28.16318
C         13.58415       64.24593       28.99369
C         13.41973       65.76242       28.81700
O         12.53620       66.31596       29.45769
C         13.84837       63.91574       30.47886
C         15.15847       64.42096       31.00692
O         15.48759       64.15489       32.15146
O         16.00534       65.10838       30.22479
H         15.57629       64.02754       28.20466
H         12.60045       63.78944       28.74992
H         13.84740       62.80977       30.59168
H         13.03024       64.32428       31.11006
N         14.20528       66.50554       27.98656
C         14.03143       67.93971       27.78290
C         14.32474       68.83997       28.98035
O         14.10343       70.03438       28.83745
H         14.90848       66.03560       27.41276
H         12.98492       68.11595       27.45286
H         14.70148       68.27101       26.96016
N         14.80916       68.38571       30.17562
C         15.00474       69.27188       31.33148
C         16.02546       70.39809       31.10853
O         16.01475       71.33804       31.89126
C         15.39098       68.47269       32.60321
C         16.71148       67.75081       32.48604
N         17.22911       67.08212       33.53966
O         17.32418       67.76745       31.43438
H         14.99102       67.38161       30.28756
H         14.02059       69.75232       31.53039
H         14.60171       67.72468       32.83184
H         15.45562       69.17797       33.46003
H         16.73531       67.05057       34.44191
H         18.13843       66.60546       33.45209
N         16.95403       70.35845       30.10758
C         17.90819       71.42998       29.83463
C         19.36973       71.04116       30.02919
O         20.21902       71.85639       29.69865
H         16.98300       69.53739       29.49546
H         17.71752       72.31998       30.47298
H         17.76063       71.74274       28.77947
N         19.74689       69.86499       30.61025
C         21.13359       69.49360       30.90008
C         21.47930       68.10539       30.36486
O         20.61496       67.40265       29.86108
C         21.34168       69.49372       32.44571
C         21.25646       70.90212       33.03190
O         20.38511       68.68018       33.07977
H         19.01948       69.22871       30.93817
H         21.84504       70.21536       30.44218
H         22.36195       69.13865       32.71307
H         20.65644       67.73670       32.93402
H         20.26069       71.35476       32.84845
H         21.43111       70.85876       34.12900
H         22.04241       71.54641       32.58235
N         22.74197       67.62214       30.55593
C         23.12420       66.22469       30.39921
C         23.13149       65.62714       31.79123
O         23.69710       66.21154       32.70615
C         24.51266       66.06716       29.69876
C         24.38985       66.43959       28.19959
C         25.05060       64.62364       29.85664
C         25.70364       66.33009       27.41743
H         23.43350       68.23811       31.00979
H         22.37524       65.66014       29.79899
H         25.24625       66.74031       30.19551
H         24.02599       67.48525       28.11535
H         23.64759       65.77075       27.71137
H         25.18602       64.37276       30.92743
H         24.36174       63.88642       29.39411
H         26.06073       64.50888       29.41907
H         25.53511       66.64341       26.36625
H         26.48088       66.98049       27.86917
H         26.07276       65.28425       27.38043
N         22.55331       64.41514       31.99613
C         22.49435       63.74650       33.28754
C         23.51748       62.64179       33.29613
O         24.18528       62.45471       32.29217
C         21.09843       63.12053       33.48992
C         19.97943       64.05225       33.16673
O         19.92495       64.56290       31.92591
O         19.07698       64.25532       33.96218
H         22.18798       63.90611       31.17867
H         22.71838       64.46449       34.10615
H         20.99023       62.72075       34.52012
H         20.98508       62.27450       32.77390
N         23.71472       61.86002       34.38767
C         24.65341       60.75128       34.35355
C         24.19323       59.63614       33.40336
O         24.99815       59.25876       32.56404
C         24.96365       60.21444       35.75805
C         26.11280       59.23280       35.68388
C         25.93150       57.89436       36.06025
C         27.37695       59.64799       35.21307
C         26.98996       56.98571       35.95726
C         28.42770       58.73631       35.10686
C         28.23461       57.40508       35.47752
H         23.20386       62.07292       35.25884
H         25.61285       61.16595       33.97546
H         24.05518       59.75526       36.19800
H         25.27174       61.05657       36.41577
H         24.97060       57.55319       36.42321
H         27.55466       60.67482       34.91823
H         26.84348       55.95367       36.24428
H         29.39020       59.06365       34.73359
H         29.05025       56.69962       35.39232
N         22.93439       59.07353       33.41847
C         22.50294       58.02663       32.48924
C         22.41191       58.48014       31.03035
O         22.06353       57.65578       30.19647
C         21.14940       57.57559       33.05396
C         20.61902       58.85079       33.66356
C         21.86599       59.41283       34.33952
H         23.19601       57.15750       32.51864
H         20.47406       57.06011       32.33705
H         21.34060       56.88313       33.90547
H         20.33403       59.52964       32.82683
H         19.74516       58.73279       34.33959
H         21.69851       60.49166       34.47489
H         22.06585       58.91868       35.31478
N         22.76944       59.73417       30.63599
C         22.83920       60.17455       29.24770
C         24.29560       60.35517       28.82939
O         24.61769       60.05446       27.68867
C         22.06101       61.48926       29.07870
C         20.57886       61.32306       29.45394
C         19.80667       62.60885       29.37576
O         18.62400       62.61288       29.67351
O         20.39944       63.76099       29.00902
H         23.03795       60.42123       31.34479
H         22.39186       59.42071       28.56158
H         22.13682       61.83575       28.02398
H         22.52618       62.25545       29.72909
H         20.49751       60.95302       30.49769
H         20.10983       60.57972       28.77338
N         25.24378       60.79306       29.70671
C         26.63988       60.93087       29.36216
H         27.04939       59.95130       29.03750
H         26.76083       61.68405       28.55752
H         27.21215       61.26862       30.25504
H         24.99042       61.01703       30.66895
Ca        18.05217       65.25383       31.02401
O         18.47266       68.03077       28.14509
H         17.66205       68.38308       27.70092
H         19.18968       68.15205       27.47503
O         20.91824       66.10504       27.11401
H         21.06910       66.51928       26.22817
H         21.28334       65.19013       27.02189

Ca 1.0



