%chk=holoCaM.loop2.water2.frame141.chk
%nprocshared=20
%mem=10GB
%nosave
#b3lyp/svp scf=(tight,noincore,xqc) Test 
#IOP(5/87=12) Density=Current Pop=(MK,readradii) iop(6/33=2) iop(6/42=6)

holoCaM.loop2.water2.frame141 

   -2  1 
C         16.36933       78.89447      -14.15690
C         16.91687       77.51314      -13.95189
O         17.17686       77.14457      -12.81496
H         15.41451       78.99024      -13.59518
H         17.08956       79.64928      -13.78360
H         16.15773       79.09238      -15.22894
N         17.05942       76.66319      -15.00650
C         17.41171       75.26494      -14.82394
C         18.88384       75.07010      -14.46988
O         19.72464       75.60931      -15.17655
C         17.10730       74.44554      -16.10099
C         17.02303       72.98447      -15.75124
O         17.04759       72.13215      -16.62275
O         16.76741       72.65563      -14.46479
H         16.78386       76.98946      -15.94595
H         16.74281       74.89351      -14.01864
H         17.88685       74.64194      -16.87118
H         16.12286       74.72063      -16.53548
N         19.26935       74.24587      -13.44701
C         20.67035       73.99662      -13.10192
C         21.11343       72.53907      -13.27250
O         22.30223       72.29632      -13.11381
C         20.90865       74.43661      -11.65475
H         18.54206       73.77558      -12.89484
H         21.33362       74.59962      -13.75856
H         20.64506       75.50851      -11.53553
H         20.27961       73.83560      -10.96174
H         21.97508       74.30400      -11.37279
N         20.25079       71.51753      -13.55839
C         20.67501       70.11863      -13.69011
C         20.22774       69.51516      -15.02834
O         21.08410       68.99203      -15.72840
C         20.31776       69.30580      -12.41112
C         18.92294       69.48873      -11.89415
O         17.87664       69.07359      -12.60771
O         18.73150       70.08565      -10.84606
H         19.24539       71.71945      -13.63054
H         21.78637       70.04497      -13.70538
H         20.99209       69.68150      -11.60865
H         20.54807       68.22741      -12.55179
N         18.93819       69.57536      -15.47527
C         18.48809       69.03055      -16.75652
C         17.40324       67.97063      -16.61347
O         16.95244       67.46344      -17.63052
H         18.24190       70.06183      -14.90886
H         19.33091       68.57186      -17.31681
H         18.09323       69.86214      -17.37645
N         16.96378       67.55379      -15.39226
C         16.02587       66.45267      -15.18049
C         14.61400       66.67420      -15.72780
O         13.86072       65.71100      -15.75128
C         15.96706       66.09405      -13.67184
C         15.46402       67.20227      -12.77073
N         15.36952       66.99936      -11.43923
O         15.15415       68.28907      -13.22868
H         17.38899       67.97189      -14.56562
H         16.44619       65.57120      -15.71218
H         16.99297       65.82913      -13.33367
H         15.31912       65.20405      -13.53153
H         15.63693       66.09791      -11.02068
H         15.02544       67.74971      -10.82627
N         14.16563       67.89087      -16.14698
C         12.84330       68.10792      -16.72442
C         11.88428       68.85940      -15.81651
O         10.80303       69.18581      -16.28599
H         14.78373       68.70237      -16.06354
H         12.34856       67.14771      -16.98491
H         12.97872       68.67024      -17.67341
N         12.16222       69.11218      -14.50380
C         11.22954       69.76529      -13.58558
C         11.85350       70.99174      -12.93495
O         13.03615       71.25040      -13.10582
C         10.79954       68.76486      -12.47140
C         10.02022       67.57365      -13.02638
O         11.92446       68.28637      -11.77461
H         13.05032       68.78430      -14.11550
H         10.31926       70.10501      -14.12612
H         10.09686       69.25838      -11.76046
H         12.06951       68.88698      -10.99712
H          9.10443       67.92642      -13.54678
H         10.64116       66.98360      -13.73140
H          9.70988       66.91166      -12.18834
N         11.09712       71.74836      -12.09307
C         11.62880       72.77511      -11.21146
C         11.88194       72.11408       -9.87250
O         11.00137       71.45270       -9.33681
C         10.66981       74.02319      -11.14419
C         11.18778       75.11277      -12.12423
C         10.53763       74.60338       -9.71734
C         10.31047       76.36456      -12.21663
H         10.11670       71.46770      -11.93872
H         12.62656       73.12472      -11.55647
H          9.64198       73.70847      -11.43050
H         11.27163       74.67768      -13.14255
H         12.20436       75.43667      -11.80134
H          9.81107       75.43795       -9.68025
H         10.12507       73.84094       -9.02382
H         11.51937       74.94922       -9.34070
H         10.24646       76.89783      -11.24612
H         10.76285       77.07530      -12.94018
H          9.29168       76.09663      -12.56338
N         13.07719       72.31366       -9.25408
C         13.41828       71.79038       -7.94488
C         13.34314       72.91765       -6.94002
O         12.99794       74.02833       -7.31837
C         14.83486       71.18099       -7.98542
C         14.94280       70.04858       -8.96414
O         14.76080       70.23958      -10.15656
O         15.27250       68.81844       -8.52756
H         13.76144       72.94673       -9.69316
H         12.68878       71.01466       -7.62202
H         15.10223       70.79712       -6.97902
H         15.57547       71.96253       -8.26598
N         13.59959       72.70793       -5.62427
C         13.48591       73.76592       -4.63099
C         14.48120       74.90672       -4.89688
O         14.02635       76.03960       -4.93040
C         13.56215       73.18004       -3.20391
C         13.23055       74.18723       -2.12992
C         11.97224       74.81940       -2.10238
C         14.16562       74.48142       -1.12443
C         11.66212       75.73121       -1.09035
C         13.84895       75.39147       -0.11171
C         12.59907       76.01619       -0.09485
H         13.84001       71.75272       -5.31342
H         12.45768       74.18328       -4.71865
H         14.54782       72.72411       -3.01059
H         12.81290       72.36177       -3.12323
H         11.22548       74.60473       -2.85611
H         15.13633       74.00168       -1.11930
H         10.69236       76.21220       -1.07535
H         14.57209       75.60892        0.66293
H         12.35484       76.71803        0.69157
N         15.82448       74.71515       -5.14680
C         16.77847       75.79815       -5.42937
C         16.49302       76.65328       -6.66113
O         17.27080       77.55925       -6.93339
C         18.09417       75.05447       -5.70830
C         17.95305       73.81632       -4.86471
C         16.50152       73.43612       -5.12670
H         16.84377       76.43000       -4.51660
H         18.10001       74.69374       -6.76561
H         19.01244       75.65814       -5.54483
H         18.68572       73.01192       -5.08693
H         18.05446       74.12123       -3.79856
H         16.37669       72.95435       -6.12060
H         16.18687       72.75263       -4.32360
N         15.44450       76.39012       -7.48296
C         15.19017       77.05058       -8.75120
C         13.93468       77.89035       -8.61151
O         13.99130       79.08094       -8.88294
C         15.08522       75.96634       -9.85132
C         16.37764       75.11686       -9.90237
C         16.31614       73.95671      -10.85384
O         15.23415       73.73441      -11.62001
O         17.25459       73.17886      -10.90607
H         14.80802       75.62678       -7.24724
H         16.02638       77.73206       -9.02897
H         14.90216       76.43783      -10.84172
H         14.22659       75.29997       -9.61934
H         16.56895       74.67839       -8.90060
H         17.23940       75.76457      -10.17439
N         12.78579       77.35169       -8.11152
C         11.58907       78.11721       -7.83212
H         10.73041       77.67691       -8.37839
H         11.37989       78.06837       -6.74100
H         11.69078       79.18469       -8.11629
H         12.76140       76.35847       -7.86134
Ca        16.61480       70.76779      -13.28810
O         14.38572       71.12365      -15.44793
H         14.20948       71.54398      -16.32464
H         15.29184       70.73915      -15.53300
O         13.96602       73.84948      -14.27216
H         14.22254       74.67326      -13.78796
H         13.98552       74.10885      -15.22666

Ca 1.0



