%chk=holoCaM.loop3.water2.frame144.chk
%nprocshared=20
%mem=10GB
%nosave
#b3lyp/svp scf=(tight,noincore,xqc) Test 
#IOP(5/87=12) Density=Current Pop=(MK,readradii) iop(6/33=2) iop(6/42=6)

holoCaM.loop3.water2.frame144 

   0  1 
C         13.55123       90.85666       -0.48697
C         13.83033       91.35776        0.89642
O         14.89411       91.91010        1.13678
H         12.64615       91.36087       -0.88675
H         14.40793       91.06046       -1.16229
H         13.37101       89.76108       -0.45243
N         12.89625       91.18263        1.86713
C         13.06132       91.61846        3.24473
C         13.03279       90.37598        4.10365
O         12.02160       89.68588        4.11494
C         11.92712       92.60056        3.55033
C         11.91549       93.24608        4.89696
O         12.81532       93.00482        5.87143
O         11.01589       94.03505        5.12250
H         12.01617       90.70302        1.61621
H         14.03120       92.14670        3.37669
H         10.95172       92.08170        3.41780
H         11.97520       93.42068        2.80497
N         14.15467       89.96726        4.76163
C         14.25375       88.63273        5.34289
C         13.69037       88.54974        6.74723
O         13.58087       87.43509        7.24206
C         15.69803       88.09563        5.24276
C         16.23850       88.04374        3.79195
C         15.41297       87.13141        2.86467
C         16.02057       87.05314        1.45809
N         15.21792       86.18689        0.59312
H         15.01005       90.53654        4.67282
H         13.61976       87.94155        4.74954
H         15.73843       87.06749        5.66465
H         16.36867       88.74204        5.84993
H         17.28038       87.65850        3.83403
H         16.27444       89.06658        3.35917
H         14.38109       87.52527        2.75941
H         15.36995       86.10953        3.30033
H         17.05566       86.65073        1.52129
H         16.06409       88.07281        1.01377
H         15.65659       86.14466       -0.35495
H         15.17655       85.21972        0.98959
H         14.24859       86.56926        0.49898
N         13.25141       89.64917        7.42996
C         12.51154       89.54938        8.68505
C         11.06392       90.02330        8.49933
O         10.29400       89.93401        9.44441
C         13.29352       90.21870        9.83374
C         13.39904       91.70849        9.74131
O         14.48444       92.24452        9.58543
O         12.30510       92.46307        9.93363
H         13.38504       90.58798        7.02603
H         12.42897       88.48257        8.98787
H         14.31398       89.77398        9.84355
H         12.81715       89.97685       10.80817
N         10.60020       90.43767        7.27554
C          9.19769       90.66057        6.96142
C          8.54290       91.87290        7.58409
O          7.35252       92.03354        7.35266
H         11.23619       90.48085        6.47125
H          8.62805       89.74925        7.24650
H          9.09803       90.78121        5.85968
N          9.20438       92.76558        8.37685
C          8.50150       93.86536        9.03837
C          7.90200       94.89072        8.06605
O          7.11367       95.71195        8.51363
C          9.37615       94.51189       10.15203
C         10.22709       95.74215        9.78139
N         11.17432       96.13081       10.81395
O         10.79989       95.76179        8.51224
H         10.19144       92.59857        8.58814
H          7.66353       93.36783        9.57818
H          9.99028       93.72400       10.63885
H          8.69090       94.89732       10.93746
H         10.64631       96.28298       11.70285
H         11.57422       97.05756       10.54054
N          8.23691       94.91574        6.73597
C          7.66177       95.83754        5.75900
C          8.65743       96.85253        5.20625
O          8.25389       97.67277        4.39704
H          8.93428       94.24906        6.38347
H          6.83369       96.42255        6.21363
H          7.23111       95.24363        4.92450
N          9.94129       96.91391        5.66121
C         10.87868       97.99508        5.36952
C         12.24337       97.45136        4.98716
O         12.76812       96.59736        5.68537
C         11.03579       98.83874        6.64733
C          9.75289       99.56054        6.96872
C          8.84984       99.03780        7.90746
C          9.44595      100.76424        6.31307
C          7.65452       99.70866        8.18272
C          8.25801      101.44092        6.60016
C          7.35606      100.91312        7.53524
O          6.20342      101.55264        7.81802
H         10.24324       96.22728        6.35108
H         10.50461       98.67180        4.56967
H         11.84340       99.59581        6.53227
H         11.33214       98.17788        7.49003
H          9.06306       98.10506        8.41282
H         10.13241      101.18291        5.58688
H          6.95967       99.29130        8.90015
H          8.03984      102.37322        6.09428
H          5.96343      102.39009        7.39601
N         12.91256       97.98585        3.92616
C         14.27335       97.61682        3.54855
C         15.17016       98.83645        3.72161
O         14.89275       99.87250        3.13558
C         14.28837       97.08882        2.08255
C         13.44331       95.79138        1.99612
C         15.72934       96.83617        1.59447
C         13.32730       95.21296        0.58471
H         12.45409       98.72855        3.37743
H         14.66649       96.80350        4.19864
H         13.84095       97.86394        1.42105
H         12.41121       96.00693        2.34584
H         13.88068       95.01603        2.66383
H         16.32694       97.76734        1.63727
H         16.22023       96.05483        2.20792
H         15.74776       96.52470        0.53211
H         14.31195       94.88198        0.19782
H         12.66831       94.32029        0.60555
H         12.88813       95.96481       -0.10365
N         16.30751       98.74828        4.47359
C         17.28547       99.82910        4.58667
C         18.41699       99.59308        3.60039
O         18.37665       98.61436        2.87895
C         17.80353       99.91426        6.03416
O         18.48485       98.73475        6.38326
H         16.55183       97.83661        4.88532
H         16.81935      100.80324        4.32367
H         16.94307      100.10610        6.71796
H         18.50264      100.76864        6.15333
H         18.03996       98.35582        7.18492
N         19.45864      100.46445        3.49395
C         20.55167      100.27014        2.54165
C         21.26778       98.95403        2.78641
O         21.41842       98.17651        1.85353
C         21.55083      101.42700        2.63389
H         19.47092      101.29465        4.10446
H         20.14254      100.27630        1.50583
H         21.03628      102.38675        2.41440
H         22.00287      101.48419        3.64638
H         22.35984      101.28813        1.88425
N         21.70596       98.63003        4.03441
C         22.40464       97.38931        4.35925
C         21.62433       96.16491        3.91769
O         22.18554       95.32633        3.22682
C         22.65951       97.31566        5.86965
H         21.51383       99.29882        4.79725
H         23.39410       97.38253        3.84942
H         23.26897       98.18548        6.19488
H         21.70047       97.32446        6.43193
H         23.21348       96.38622        6.12154
N         20.31677       96.01034        4.26416
C         19.51355       94.85008        3.87967
C         19.52102       94.65749        2.37066
O         19.91603       93.59113        1.91980
C         18.06894       94.99462        4.40627
C         18.01649       94.94230        5.94351
C         16.61763       95.11672        6.45602
O         15.73543       94.33779        6.13190
O         16.33797       96.12483        7.30204
H         19.87643       96.76685        4.80868
H         19.94923       93.93327        4.33734
H         17.44992       94.15757        4.01354
H         17.63924       95.95017        4.04180
H         18.65043       95.73946        6.38424
H         18.40390       93.96044        6.29047
N         19.13083       95.65413        1.53149
C         19.15387       95.54896        0.08670
H         19.84570       96.31497       -0.32380
H         19.49213       94.55086       -0.26158
H         18.13597       95.73613       -0.31298
H         18.82299       96.54413        1.92988
Ca        11.97876       93.99137        7.71826
O         13.95067       97.94751        8.25496
H         14.33138       97.66988        7.38588
H         13.78193       98.91612        8.14517
O         14.08855       95.34483       10.29338
H         13.64078       94.91191       11.06333
H         14.02621       96.31425       10.48462

Ca 1.0



