%chk=holoCaM.loop4.water3.frame58.chk
%nprocshared=20
%mem=10GB
%nosave
#b3lyp/svp scf=(tight,noincore,xqc) Test 
#IOP(5/87=12) Density=Current Pop=(MK,readradii) iop(6/33=2) iop(6/42=6)

holoCaM.loop4.water3.frame58 

   -3  1 
C         97.13991        2.75869       23.26064
C         96.44400        3.43504       24.40500
O         95.28060        3.14383       24.64153
H         98.00295        2.17947       23.65687
H         96.45741        2.04416       22.75014
H         97.50429        3.50556       22.52875
N         97.13083        4.29932       25.20855
C         96.59643        4.80098       26.46826
C         96.79135        6.30828       26.66348
O         97.90418        6.80090       26.54947
C         97.29969        4.03075       27.59146
C         96.75840        4.40996       28.92893
O         95.56973        4.26766       29.16542
O         97.58034        4.91866       29.86575
H         98.12378        4.48097       24.99539
H         95.51311        4.55752       26.55220
H         98.39412        4.21980       27.55857
H         97.12526        2.94158       27.44771
N         95.73165        7.06925       27.06576
C         95.75674        8.49187       27.40538
C         95.38595        8.73757       28.88321
O         95.68407        9.82449       29.35986
C         94.77339        9.23766       26.43025
C         95.39180        9.26353       25.00724
C         94.38888       10.66108       26.89039
C         94.45184        9.78208       23.91473
H         94.83480        6.59797       27.15130
H         96.78583        8.89691       27.28382
H         93.81987        8.66240       26.40707
H         95.68355        8.23379       24.71208
H         96.30984        9.89209       25.02081
H         93.86125       10.62578       27.86688
H         95.28158       11.31367       26.97167
H         93.65575       11.12384       26.20045
H         93.54591        9.14401       23.85116
H         94.15123       10.83451       24.08603
H         94.97723        9.74742       22.93698
N         94.66571        7.85152       29.63863
C         94.11588        8.18775       30.96145
C         94.40187        7.13151       32.05018
O         93.98333        7.34013       33.18023
C         92.61377        8.52552       30.77765
C         91.89431        7.45509       30.02267
O         91.78254        6.24910       30.57190
O         91.47686        7.65424       28.89310
H         94.36355        6.96290       29.21926
H         94.57062        9.12459       31.35106
H         92.55464        9.45543       30.17048
H         92.11753        8.72477       31.75190
N         95.17407        6.03021       31.81359
C         95.64876        5.09721       32.83989
C         94.61875        4.19135       33.50933
O         95.01833        3.43844       34.38636
H         95.55564        5.91107       30.87531
H         96.17248        5.68325       33.62663
H         96.40296        4.42357       32.37710
N         93.29702        4.20368       33.18620
C         92.27241        3.42294       33.90191
C         92.28695        1.90375       33.66239
O         91.43551        1.22886       34.22530
C         90.88497        4.01025       33.58004
C         90.51175        3.94133       32.12981
O         91.23022        3.22872       31.24234
O         89.55861        4.59139       31.73279
H         92.99345        4.87340       32.46766
H         92.41373        3.59259       34.99295
H         90.92921        5.08707       33.85979
H         90.08666        3.53888       34.19117
N         93.21448        1.28606       32.87884
C         93.28061       -0.16071       32.68327
C         92.29280       -0.73886       31.67406
O         92.42930       -1.91245       31.36387
H         93.96864        1.84894       32.47036
H         93.22052       -0.68960       33.65936
H         94.28233       -0.38368       32.25505
N         91.32500        0.01339       31.07703
C         90.49824       -0.44541       29.95731
C         90.76519        0.44496       28.74997
O         91.52306        1.39500       28.87488
C         89.00154       -0.37031       30.31278
C         88.63094       -1.21675       31.53368
C         87.14551       -1.13588       31.77892
N         86.65770       -0.56624       32.90492
O         86.37197       -1.58199       30.94388
H         91.19365        0.97327       31.38785
H         90.75427       -1.49105       29.68108
H         88.40752       -0.72578       29.44223
H         88.72217        0.68839       30.51543
H         89.18741       -0.83580       32.41673
H         88.91390       -2.27980       31.37316
H         87.29028       -0.16974       33.61467
H         85.64033       -0.50620       33.05989
N         90.17795        0.19275       27.53933
C         90.37909        1.06017       26.37672
C         89.04121        1.58288       25.84892
O         87.99928        1.01685       26.14164
C         91.26823        0.34032       25.31829
C         90.60892       -0.91627       24.73216
C         91.71450        1.26998       24.17923
H         89.58278       -0.64120       27.43880
H         90.95067        1.95607       26.69864
H         92.19694        0.02458       25.84525
H         91.31057       -1.41808       24.03127
H         90.36143       -1.64562       25.52940
H         89.68312       -0.65294       24.17854
H         92.22010        2.16945       24.58722
H         92.43969        0.74585       23.52098
H         90.85644        1.58194       23.55368
N         89.02048        2.73050       25.11401
C         87.83076        3.37699       24.56620
C         88.01321        3.50982       23.06103
O         89.08299        3.21498       22.56550
C         87.67776        4.75176       25.27160
C         86.58497        5.66041       24.75854
N         85.28642        5.28348       24.76638
O         86.88303        6.77236       24.34794
H         89.91516        3.19512       24.93373
H         86.92734        2.75859       24.75682
H         88.64030        5.30247       25.18403
H         87.49233        4.56796       26.35196
H         85.00573        4.35555       25.11148
H         84.55973        5.92501       24.41318
N         86.99023        3.88686       22.25235
C         87.13972        4.00438       20.80172
C         88.02380        5.17437       20.39942
O         88.74969        5.04895       19.42225
C         85.76683        3.98035       20.09926
C         84.75435        4.97062       20.62732
C         84.82966        6.34050       20.33072
C         83.69883        4.50062       21.43111
C         83.85843        7.22037       20.82723
C         82.74321        5.37964       21.93647
C         82.81341        6.74035       21.63378
O         81.87044        7.57188       22.11998
H         86.06775        4.02895       22.67887
H         87.64379        3.08467       20.42477
H         85.37211        2.95768       20.29046
H         85.86855        4.06944       18.99585
H         85.62475        6.72494       19.70510
H         83.62200        3.44923       21.68109
H         83.91599        8.27331       20.58347
H         81.94567        4.99828       22.56199
H         81.86821        8.51947       21.92667
N         88.03338        6.33596       21.10891
C         88.89496        7.46712       20.77459
C         90.36166        7.06685       20.91532
O         91.13512        7.28626       19.99433
C         88.52587        8.68322       21.65672
C         89.14259        9.99384       21.14068
C         88.62387       11.17093       21.92016
O         88.86402       11.27005       23.24114
O         87.97789       12.04246       21.35854
H         87.39764        6.41925       21.91420
H         88.68213        7.76943       19.72461
H         88.79776        8.50218       22.72034
H         87.42142        8.81207       21.59823
H         88.85739       10.12752       20.07246
H         90.24997        9.96348       21.20749
N         90.78616        6.41010       22.03391
C         92.15403        5.92549       22.24339
C         92.55956        4.95262       21.14083
O         93.52768        5.21479       20.44076
C         92.26041        5.22851       23.62512
C         92.02585        6.20950       24.78969
C         91.90787        5.49896       26.10804
O         91.00133        4.71473       26.30616
O         92.75403        5.76377       27.10776
H         90.07939        6.21690       22.75914
H         92.85919        6.78688       22.23097
H         93.26670        4.77111       23.75216
H         91.50712        4.41441       23.66432
H         91.08358        6.77552       24.65237
H         92.86563        6.93599       24.81705
N         91.85795        3.80735       20.93064
C         92.18512        2.84711       19.90027
H         93.20237        2.43648       20.06862
H         91.45683        2.00632       19.92902
H         92.12832        3.32538       18.90023
H         91.05474        3.60606       21.52451
Ca        91.81436        4.34214       29.43273
O         94.62837        1.83883       30.08595
H         94.83182        0.99646       29.60969
H         95.45826        2.04911       30.58428
O         93.97385        2.28152       27.32757
H         94.49477        1.52202       26.96401
H         93.47934        2.64342       26.55183
O         89.11048        3.57485       28.37692
H         89.23392        4.55576       28.43405
H         89.23177        3.25241       29.30445

Ca 1.0



