%chk=holoCaM-CaMKII.loop3.water2.frame403.chk
%nprocshared=20
%mem=10GB
%nosave
#b3lyp/svp scf=(tight,noincore,xqc) Test 
#IOP(5/87=12) Density=Current Pop=(MK,readradii) iop(6/33=2) iop(6/42=6)

holoCaM-CaMKII.loop3.water2.frame403 

   0  1 
C         36.94213       68.82421       56.54070
C         35.62203       69.52381       56.66829
O         34.61809       68.85343       56.86270
H         37.77157       69.54748       56.39187
H         37.14272       68.24757       57.46815
H         36.91468       68.13013       55.67581
N         35.55064       70.88121       56.57611
C         34.31470       71.63731       56.74209
C         34.00442       72.39061       55.44371
O         34.88342       72.49286       54.59804
C         34.54776       72.57087       57.96039
C         33.36655       73.28323       58.53715
O         33.54777       74.10907       59.58553
O         32.24467       73.09323       58.11535
H         36.41955       71.41243       56.40576
H         33.47520       70.93977       56.95548
H         35.32034       73.32295       57.69008
H         34.94503       71.95566       58.79770
N         32.76871       72.92187       55.20280
C         32.43230       73.69319       54.00546
C         32.10713       75.14888       54.32937
O         31.98190       75.92969       53.39568
C         31.23899       73.05665       53.24669
C         29.95851       72.94883       54.10796
C         28.72866       72.58219       53.26386
C         27.45247       72.34777       54.09913
N         27.10590       73.48598       54.95129
H         32.02768       72.77167       55.89156
H         33.30697       73.72295       53.31979
H         31.51306       72.04310       52.88137
H         31.02969       73.68967       52.35594
H         29.75760       73.92854       54.58832
H         30.10933       72.18275       54.89698
H         28.93217       71.65104       52.69241
H         28.54198       73.40431       52.53877
H         27.57572       71.44884       54.73355
H         26.61175       72.14520       53.40033
H         27.82378       73.60188       55.69801
H         27.02658       74.36173       54.38660
H         26.19234       73.29455       55.42266
N         31.90839       75.57817       55.60853
C         31.54482       76.94653       55.96055
C         32.50185       77.57543       56.97138
O         32.38845       78.77637       57.17974
C         30.09105       76.98125       56.49908
C         29.81794       75.89754       57.51979
O         28.89555       75.12018       57.35119
O         30.66952       75.70208       58.54062
H         31.95619       74.89827       56.37246
H         31.58886       77.60190       55.06237
H         29.38803       76.83072       55.64989
H         29.87960       77.98473       56.92789
N         33.44767       76.86184       57.65340
C         34.36965       77.47166       58.60239
C         33.72469       78.13974       59.81311
O         34.46829       78.74330       60.57366
H         33.55765       75.85485       57.48504
H         34.96251       78.23835       58.05766
H         35.07842       76.69906       58.97346
N         32.37797       78.11998       60.05952
C         31.76365       78.89914       61.13546
C         32.16866       78.46236       62.53598
O         31.82856       79.17473       63.47102
C         30.21809       78.89681       61.03244
C         29.59774       77.58002       61.44113
N         28.73533       77.50885       62.47864
O         29.88104       76.56307       60.83960
H         31.76028       77.61644       59.41946
H         32.09622       79.94974       60.98040
H         29.91218       79.15288       59.99463
H         29.82278       79.69313       61.69891
H         28.47351       78.34636       63.01705
H         28.32961       76.60097       62.74223
N         32.84845       77.30271       62.77210
C         33.23480       76.87711       64.10640
C         32.65629       75.53712       64.50818
O         33.00394       75.09451       65.59362
H         33.11656       76.69224       61.98680
H         32.93548       77.61734       64.87869
H         34.34283       76.79832       64.13136
N         31.81734       74.80606       63.70817
C         31.37408       73.46340       64.08932
C         30.82661       72.66928       62.87460
O         31.68289       72.87107       61.79033
C         30.38687       73.51513       65.29183
C         29.08405       74.24352       65.02571
C         28.13179       73.73151       64.12511
C         28.78982       75.43145       65.71972
C         26.91706       74.39547       63.92160
C         27.57539       76.09382       65.51426
C         26.63464       75.57944       64.61714
O         25.46760       76.22928       64.43223
H         31.55648       75.16940       62.78055
H         32.28562       72.90438       64.40316
H         30.90650       74.00293       66.14040
H         30.14244       72.49690       65.65300
H         28.31406       72.81080       63.59059
H         29.49829       75.84655       66.42543
H         26.19338       73.98668       63.22777
H         27.36422       77.00714       66.05623
H         24.78997       75.90782       63.82039
N         30.82687       71.22640       63.18828
C         30.39081       70.33969       62.08350
C         29.11513       69.56490       62.42005
O         28.66253       69.57707       63.55269
C         31.53923       69.34522       61.72104
C         31.92361       68.47129       62.94854
C         32.76236       70.10163       61.16837
C         32.95687       67.38563       62.64402
H         30.42578       70.98566       64.11872
H         30.14866       70.95168       61.18819
H         31.17603       68.67898       60.90710
H         31.01729       67.95212       63.32592
H         32.31685       69.11481       63.76583
H         33.21080       70.75664       61.94439
H         33.54025       69.39945       60.80766
H         32.47218       70.72281       60.29729
H         32.58007       66.70833       61.84910
H         33.92787       67.82091       62.33396
H         33.13934       66.78816       63.56253
N         28.47453       68.87347       61.43170
C         27.26950       68.07987       61.66208
C         27.40382       66.69262       61.04034
O         28.39953       66.39919       60.40191
C         26.06208       68.82919       61.07796
O         26.21749       69.01769       59.69941
H         28.82586       68.95475       60.46894
H         27.08718       67.95453       62.75053
H         25.98794       69.81766       61.58479
H         25.12705       68.26084       61.27601
H         25.42781       69.53982       59.40259
N         26.38469       65.79258       61.18320
C         26.36210       64.48543       60.52866
C         26.37765       64.64154       59.02240
O         27.07370       63.88720       58.35510
C         25.10192       63.71425       60.93407
H         25.57568       66.06257       61.75846
H         27.23468       63.87755       60.85654
H         24.18547       64.26556       60.63402
H         25.09597       62.71442       60.44748
H         25.09031       63.56425       62.03441
N         25.64548       65.62057       58.42024
C         25.65258       65.86832       56.98422
C         27.05858       66.15665       56.48297
O         27.50752       65.47790       55.57089
C         24.72967       67.04733       56.64643
H         25.07219       66.23648       59.01989
H         25.25285       64.97240       56.45754
H         24.71177       67.22074       55.54927
H         23.69356       66.82492       56.98070
H         25.06931       67.97795       57.14964
N         27.81419       67.14908       57.03986
C         29.15704       67.48609       56.56064
C         30.15430       66.34695       56.72868
O         31.23258       66.43327       56.15547
C         29.72378       68.71233       57.30495
C         28.89493       69.98428       57.08744
C         29.45303       71.15497       57.84422
O         28.91088       72.24348       57.75849
O         30.53740       71.01761       58.62836
H         27.40540       67.68755       57.81508
H         29.07858       67.72269       55.47559
H         30.75563       68.91841       56.94014
H         29.77876       68.47474       58.38923
H         27.84671       69.83827       57.41858
H         28.90411       70.21836       56.00602
N         29.89671       65.27181       57.52060
C         30.83919       64.18908       57.68670
H         31.79296       64.57661       58.10298
H         30.42469       63.43404       58.38844
H         31.02827       63.69982       56.70793
H         29.01949       65.22340       58.04635
Ca        30.67483       74.00606       60.06982
O         27.75541       72.26720       60.89119
H         27.52946       71.64548       60.15523
H         26.94430       72.28239       61.45800
O         27.24975       75.10118       59.91822
H         26.83958       74.51346       59.23470
H         27.31136       75.98683       59.47971

Ca 1.0



