%chk=holoCaM.loop1.water2.frame81.chk
%nprocshared=20
%mem=10GB
%nosave
#b3lyp/svp scf=(tight,noincore,xqc) Test 
#IOP(5/87=12) Density=Current Pop=(MK,readradii) iop(6/33=2) iop(6/42=6)

holoCaM.loop1.water2.frame81 

   0  1 
C        -15.85495       17.54072       -1.09735
C        -16.66490       18.63458       -1.72113
O        -17.82225       18.80090       -1.36118
H        -14.97223       17.98542       -0.58920
H        -16.45604       16.99254       -0.34069
H        -15.51213       16.83144       -1.87723
N        -16.09687       19.46267       -2.64037
C        -16.80529       20.61577       -3.17284
C        -17.95104       20.17400       -4.09681
O        -17.68002       19.59990       -5.14265
C        -15.81243       21.54579       -3.90698
C        -16.40766       22.89026       -4.17162
O        -15.79354       23.71302       -4.82556
O        -17.60776       23.20156       -3.65895
H        -15.10529       19.31494       -2.88816
H        -17.19115       21.17547       -2.29036
H        -15.49600       21.06907       -4.86134
H        -14.90579       21.71543       -3.28621
N        -19.25720       20.35442       -3.73619
C        -20.38859       19.81650       -4.50130
C        -20.66311       20.49069       -5.84836
O        -21.32369       19.85548       -6.65853
C        -21.69102       19.79645       -3.65336
C        -22.23907       21.19909       -3.33375
C        -23.45485       21.15912       -2.39891
C        -23.89773       22.56272       -1.93551
N        -24.33170       23.41397       -3.04353
H        -19.43533       20.75735       -2.80938
H        -20.14413       18.74856       -4.70156
H        -21.47597       19.25830       -2.70326
H        -22.47837       19.22795       -4.19452
H        -22.49753       21.72214       -4.27699
H        -21.46439       21.76639       -2.82160
H        -23.18017       20.58817       -1.48460
H        -24.29834       20.63754       -2.89880
H        -23.06551       23.06252       -1.39080
H        -24.74274       22.44347       -1.22253
H        -24.68548       24.31975       -2.65887
H        -23.53038       23.62654       -3.67470
H        -25.09730       22.94859       -3.58174
N        -20.30624       21.78293       -6.12909
C        -20.66992       22.45468       -7.38989
C        -19.45684       22.94749       -8.18393
O        -19.65871       23.49579       -9.25916
C        -21.70474       23.58572       -7.14537
C        -21.24153       24.60742       -6.15635
O        -20.07331       25.23786       -6.31972
O        -21.86514       24.77861       -5.12339
H        -19.80493       22.32436       -5.40941
H        -21.18444       21.74208       -8.07029
H        -22.64156       23.12759       -6.75499
H        -21.95241       24.08238       -8.10717
N        -18.17573       22.73168       -7.77052
C        -17.00809       23.05280       -8.57924
C        -16.75217       24.53308       -8.75927
O        -16.62794       24.97794       -9.89174
H        -18.00161       22.23666       -6.88513
H        -17.09175       22.54865       -9.56866
H        -16.10986       22.63998       -8.07320
N        -16.59507       25.34274       -7.67474
C        -16.15911       26.73767       -7.75051
C        -14.90050       26.98509       -6.90280
O        -14.50179       28.13350       -6.76752
C        -17.32669       27.68618       -7.40094
C        -17.85433       27.61049       -6.00158
O        -18.80747       28.30140       -5.68441
O        -17.28880       26.81322       -5.08692
H        -16.77267       24.93943       -6.74562
H        -15.89297       27.00519       -8.79699
H        -18.16251       27.46281       -8.09917
H        -17.00535       28.73533       -7.57885
N        -14.18511       25.95280       -6.35789
C        -12.94337       26.12123       -5.61243
C        -13.10165       26.60202       -4.18028
O        -12.08428       26.69680       -3.50790
H        -14.46305       24.98363       -6.56044
H        -12.25163       26.78226       -6.17782
H        -12.45609       25.12443       -5.53271
N        -14.31321       26.89104       -3.62520
C        -14.49071       27.27000       -2.22429
C        -15.42332       26.30898       -1.49659
O        -16.13151       25.52863       -2.11792
C        -15.03082       28.72292       -2.10862
C        -13.94339       29.74461       -2.43655
O        -16.11781       28.93757       -2.97283
H        -15.14906       26.82568       -4.20806
H        -13.52121       27.21040       -1.68238
H        -15.34217       28.93866       -1.06098
H        -16.80014       28.25277       -2.76383
H        -13.56505       29.60959       -3.47060
H        -14.35402       30.77255       -2.33383
H        -13.10022       29.63975       -1.71988
N        -15.42168       26.31408       -0.13385
C        -16.25808       25.48747        0.72765
C        -17.02140       26.40281        1.67738
O        -16.42666       27.25159        2.32722
C        -15.37802       24.40757        1.44491
C        -15.12160       23.25189        0.42818
C        -16.03485       23.86218        2.73057
C        -14.27551       22.08883        0.94704
H        -14.75225       26.94086        0.34049
H        -17.01639       24.92895        0.14031
H        -14.41907       24.87023        1.76662
H        -14.61939       23.66190       -0.47343
H        -16.09926       22.82197        0.10839
H        -16.20061       24.67969        3.46231
H        -16.99655       23.36900        2.51650
H        -15.37003       23.13867        3.24337
H        -13.27284       22.44480        1.25727
H        -14.77243       21.57009        1.79259
H        -14.15836       21.33779        0.13562
N        -18.35979       26.21583        1.84143
C        -19.21724       26.97259        2.73849
C        -19.47720       26.14669        3.98224
O        -18.93510       25.05812        4.11028
C        -20.57395       27.28968        2.03126
C        -20.40424       28.10507        0.74659
O        -21.30905       26.10982        1.78665
H        -18.79033       25.41767        1.37277
H        -18.72715       27.92131        3.04788
H        -21.19759       27.91693        2.70056
H        -21.01990       25.71613        0.92477
H        -19.90061       29.06939        0.96297
H        -19.80443       27.53077        0.01399
H        -21.40204       28.31304        0.30158
N        -20.32807       26.59792        4.93941
C        -20.76438       25.77443        6.06058
C        -21.52454       24.55367        5.55419
O        -21.32866       23.47586        6.09662
C        -21.64517       26.58478        7.03839
C        -20.83245       27.70605        7.70439
O        -22.75553       27.11939        6.36353
H        -20.72465       27.54300        4.83459
H        -19.88010       25.42560        6.64212
H        -21.99115       25.88921        7.83838
H        -23.37714       27.46110        7.05773
H        -20.45636       28.43532        6.95736
H        -21.46438       28.24870        8.43754
H        -19.96400       27.27511        8.24817
N        -22.40579       24.64761        4.51206
C        -23.16265       23.49633        4.01162
C        -22.26746       22.42010        3.38189
O        -22.76823       21.33989        3.10086
C        -24.22284       23.90614        2.95449
C        -25.12804       25.09949        3.31972
C        -25.87202       24.95435        4.65203
C        -26.71469       26.21197        4.91742
N        -27.39910       26.13184        6.20599
H        -22.54982       25.57273        4.08877
H        -23.69472       23.05780        4.88470
H        -24.86354       23.02037        2.74552
H        -23.70633       24.18133        2.00786
H        -25.86659       25.22965        2.49825
H        -24.52220       26.02749        3.35243
H        -25.13692       24.84459        5.47767
H        -26.52557       24.05559        4.62600
H        -27.46651       26.33643        4.10630
H        -26.05149       27.10672        4.91837
H        -26.69917       26.04370        6.97832
H        -27.95155       27.00791        6.35155
H        -28.04897       25.31306        6.21846
N        -20.95177       22.65523        3.10109
C        -20.03882       21.69216        2.48886
C        -18.88723       21.33163        3.42834
O        -18.08940       20.48299        3.05418
C        -19.43554       22.31382        1.20859
C        -20.46232       22.63665        0.11971
C        -19.82014       23.44549       -0.98075
O        -19.36741       24.68587       -0.75107
O        -19.71956       22.99870       -2.10154
H        -20.56898       23.58140        3.30217
H        -20.57004       20.74717        2.24126
H        -18.66655       21.63894        0.76940
H        -18.93601       23.24903        1.50947
H        -21.30432       23.23257        0.52793
H        -20.86553       21.67757       -0.27426
N        -18.71477       21.93560        4.64153
C        -17.61813       21.64245        5.54139
H        -17.01953       22.56526        5.69788
H        -18.02575       21.31361        6.52025
H        -16.94617       20.85025        5.15245
H        -19.36646       22.65774        4.95798
Ca       -18.85914       24.81454       -4.51010
O        -19.22883       28.36357       -2.24745
H        -19.35089       28.55272       -3.20906
H        -19.17578       29.25619       -1.82276
O        -21.33917       26.25778       -2.52499
H        -22.06238       26.63824       -3.08375
H        -21.77606       26.04896       -1.66161

Ca 1.0



