%chk=holoCaM-CaMKII.loop2.water2.frame253.chk
%nprocshared=20
%mem=10GB
%nosave
#b3lyp/svp scf=(tight,noincore,xqc) Test 
#IOP(5/87=12) Density=Current Pop=(MK,readradii) iop(6/33=2) iop(6/42=6)

holoCaM-CaMKII.loop2.water2.frame253 

   -2  1 
C        103.53435        6.94505       47.89383
C        103.69540        6.02054       46.72065
O        104.25957        4.94626       46.86513
H        102.45221        7.11866       48.08004
H        103.98772        6.51546       48.81138
H        104.01814        7.92002       47.67295
N        103.19284        6.38812       45.51331
C        103.23101        5.55206       44.31891
C        104.64852        5.25516       43.85245
O        105.41771        6.18350       43.64698
C        102.45238        6.24953       43.19036
C        102.43648        5.41056       41.95196
O        102.85526        5.86833       40.90163
O        101.99513        4.13927       42.00668
H        102.71884        7.30409       45.45702
H        102.70553        4.59735       44.54088
H        102.89972        7.24289       42.96609
H        101.40618        6.41356       43.51993
N        105.02527        3.96533       43.59919
C        106.34024        3.58015       43.10170
C        106.29975        2.87064       41.73993
O        107.37706        2.59689       41.22848
C        106.99649        2.65670       44.13723
H        104.34404        3.21691       43.76801
H        106.97944        4.48134       42.98380
H        106.39283        1.73054       44.26573
H        108.02212        2.36966       43.82228
H        107.06326        3.16909       45.12074
N        105.13797        2.48896       41.11544
C        105.12701        1.68451       39.87914
C        104.13921        2.15266       38.80110
O        104.12512        1.54462       37.73937
C        104.87856        0.20760       40.24143
C        103.55944       -0.04686       40.90144
O        103.32129       -1.15434       41.35563
O        102.64847        0.92993       41.04330
H        104.24773        2.65883       41.59763
H        106.13449        1.71068       39.41002
H        105.67526       -0.09868       40.95480
H        104.95998       -0.43895       39.34153
N        103.30289        3.21536       38.97313
C        102.42170        3.72545       37.92577
C        101.23033        2.84913       37.54840
O        100.52281        3.23545       36.62863
H        103.34851        3.74209       39.84864
H        103.03456        3.92043       37.01928
H        102.00120        4.69927       38.25855
N        100.92056        1.68579       38.19158
C         99.78934        0.82374       37.81813
C         98.39066        1.42112       38.08622
O         97.41595        0.72331       37.84131
C         99.93736       -0.56795       38.48777
C         99.83002       -0.58150       39.98766
N         99.97732       -1.74321       40.66360
O         99.61326        0.44870       40.60000
H        101.54532        1.36682       38.93920
H         99.86357        0.61796       36.72766
H        100.93075       -0.98357       38.21001
H         99.16024       -1.25285       38.08484
H        100.16665       -2.62386       40.16380
H         99.90817       -1.76291       41.68965
N         98.19979        2.69567       38.54044
C         96.88666        3.30796       38.71774
C         96.19308        2.97510       40.02832
O         95.11608        3.51180       40.24867
H         99.00711        3.31026       38.66649
H         96.23678        3.07487       37.84575
H         97.02439        4.41094       38.73186
N         96.73641        2.13442       40.95319
C         96.12702        1.83807       42.24947
C         97.09713        2.12967       43.39227
O         98.25663        2.43063       43.14941
C         95.71992        0.33834       42.29887
C         94.60716        0.01815       41.30126
O         96.82450       -0.48588       42.02127
H         97.62197        1.67212       40.73431
H         95.21924        2.46012       42.41356
H         95.30304        0.07866       43.29894
H         97.37654       -0.52139       42.84465
H         93.70423        0.62348       41.53062
H         94.93195        0.22437       40.26033
H         94.33477       -1.05660       41.38070
N         96.68087        1.96361       44.68008
C         97.55513        1.94896       45.84913
C         97.62816        0.51176       46.31412
O         96.60215       -0.14235       46.45024
C         97.06255        2.92282       46.97528
C         97.53893        4.36147       46.63760
C         97.59447        2.50195       48.36881
C         97.13381        5.43700       47.64978
H         95.69314        1.70994       44.83960
H         98.59596        2.24023       45.58752
H         95.95288        2.87880       47.03880
H         97.14511        4.65431       45.64173
H         98.64985        4.36615       46.59256
H         97.22691        1.48966       48.63938
H         98.70445        2.50164       48.39333
H         97.20607        3.15983       49.17037
H         97.57675        5.24867       48.64961
H         97.52731        6.41975       47.31327
H         96.03035        5.49747       47.73466
N         98.83970       -0.02081       46.62808
C         99.03317       -1.39734       47.05960
C         99.33725       -1.40620       48.53043
O         99.34855       -0.35067       49.14360
C        100.21325       -2.01654       46.29615
C        100.16574       -1.63079       44.86291
O        101.08045       -0.73314       44.48315
O         99.26587       -1.98392       44.11917
H         99.67188        0.58827       46.59898
H         98.11454       -1.99456       46.87112
H        100.28708       -3.11584       46.42822
H        101.14781       -1.56227       46.70222
N         99.56989       -2.56903       49.18245
C         99.80811       -2.60078       50.61132
C        101.13296       -1.95207       51.03421
O        101.07432       -1.12100       51.92948
C         99.65022       -4.02885       51.15531
C         99.56797       -4.02314       52.66392
C        100.48855       -4.75111       53.43022
C         98.55896       -3.28592       53.32056
C        100.40736       -4.73524       54.82652
C         98.49010       -3.26366       54.71260
C         99.41316       -3.98841       55.46640
H         99.50300       -3.45573       48.65813
H         98.98122       -2.01673       51.06564
H        100.47270       -4.67435       50.78087
H         98.69114       -4.44804       50.77859
H        101.26537       -5.33065       52.94813
H         97.82288       -2.71966       52.76417
H        101.11737       -5.30089       55.41343
H         97.71851       -2.68398       55.20381
H         99.35466       -3.97216       56.54613
N        102.35802       -2.23858       50.47697
C        103.60778       -1.64177       50.94362
C        103.61188       -0.13516       50.75470
O        104.10524        0.56468       51.62846
C        104.68806       -2.37893       50.13960
C        103.98437       -2.70956       48.84703
C        102.59184       -3.11459       49.34127
H        103.80472       -1.85491       52.01818
H        105.66452       -1.85402       50.05280
H        104.87073       -3.35912       50.63669
H        103.91139       -1.76761       48.26278
H        104.48727       -3.46175       48.20269
H        101.90001       -2.95400       48.49598
H        102.55998       -4.16848       49.68790
N        103.01396        0.43768       49.67695
C        102.90989        1.87993       49.48448
C        102.11746        2.48322       50.63132
O        102.62555        3.36111       51.31455
C        102.25013        2.17561       48.11972
C        103.13828        1.64742       46.97270
C        102.52011        1.79077       45.61902
O        103.12157        1.36306       44.64888
O        101.30342        2.34105       45.45615
H        102.56637       -0.18125       48.98778
H        103.92663        2.33412       49.46731
H        102.11142        3.27200       47.99197
H        101.25113        1.68930       48.08201
H        103.34172        0.56603       47.10174
H        104.11122        2.18416       46.98392
N        100.87830        2.01195       50.93139
C        100.10524        2.48291       52.05786
H         99.14681        1.92174       52.11426
H        100.66674        2.30644       53.00029
H         99.88296        3.56362       51.94616
H        100.48176        1.26286       50.35891
Ca       101.25767        0.52889       42.69647
O         99.81593        4.46814       44.07711
H         99.16103        5.19891       43.95032
H        100.26062        4.67749       44.93536
O         99.46310        4.13723       40.98765
H        100.15701        4.34927       40.31330
H         98.78403        4.84658       40.87135

Ca 1.0



