%chk=holoCaM.loop2.water2.frame147.chk
%nprocshared=20
%mem=10GB
%nosave
#b3lyp/svp scf=(tight,noincore,xqc) Test 
#IOP(5/87=12) Density=Current Pop=(MK,readradii) iop(6/33=2) iop(6/42=6)

holoCaM.loop2.water2.frame147 

   -2  1 
C        -10.67692       67.98269        4.15202
C         -9.94268       66.67380        4.09468
O         -8.84432       66.57068        4.62113
H        -11.63851       67.83608        4.69205
H        -10.08680       68.75105        4.69418
H        -10.89532       68.34313        3.12582
N        -10.53479       65.60443        3.50092
C         -9.97657       64.25893        3.52798
C         -8.70169       64.10572        2.70192
O         -8.75708       64.25068        1.48875
C        -11.04365       63.26621        3.02945
C        -10.57098       61.85436        3.13573
O        -10.53402       61.14684        2.14221
O        -10.17805       61.36896        4.32858
H        -11.47587       65.74379        3.09863
H         -9.77081       64.00641        4.58757
H        -11.31907       63.49722        1.97638
H        -11.95696       63.36723        3.65097
N         -7.52764       63.74699        3.30451
C         -6.30717       63.39491        2.59306
C         -5.80230       62.01681        3.05149
O         -4.65046       61.90612        3.44738
C         -5.25602       64.48804        2.83055
H         -7.49098       63.70472        4.32343
H         -6.50008       63.34583        1.49980
H         -4.32309       64.25581        2.27324
H         -5.64019       65.46712        2.47440
H         -5.01855       64.57296        3.91360
N         -6.61724       60.91769        3.00269
C         -6.17684       59.54572        3.33808
C         -7.23803       58.45013        3.11119
O         -6.85151       57.29410        3.00722
C         -5.60260       59.40119        4.77320
C         -6.58908       59.73053        5.85574
O         -7.62573       59.09759        5.96269
O         -6.30599       60.69945        6.74645
H         -7.56190       61.08943        2.64437
H         -5.35144       59.31392        2.62900
H         -4.71132       60.04360        4.90595
H         -5.25311       58.35595        4.92248
N         -8.57286       58.71479        3.03940
C         -9.59810       57.72747        2.74956
C         -9.78290       56.70200        3.84147
O         -9.68797       55.51673        3.55692
H         -8.90524       59.66589        3.17077
H         -9.37843       57.24160        1.77389
H        -10.57357       58.25249        2.64735
N        -10.11216       57.09106        5.10725
C        -10.45832       56.15487        6.17736
C        -11.86462       56.41499        6.73725
O        -12.23400       55.77254        7.71077
C         -9.38424       56.15819        7.28685
C         -9.22119       57.42651        8.08049
N         -8.37212       57.43711        9.13103
O         -9.84757       58.43534        7.80138
H        -10.14769       58.10140        5.31041
H        -10.45880       55.11107        5.79279
H         -8.40041       55.89639        6.83955
H         -9.64793       55.35362        8.00779
H         -7.83858       56.59397        9.38738
H         -8.26181       58.28066        9.70353
N        -12.72472       57.29846        6.14645
C        -14.08763       57.54267        6.60597
C        -14.21253       58.39847        7.85975
O        -15.34129       58.65437        8.25441
H        -12.44717       57.75824        5.26986
H        -14.61139       56.57116        6.74233
H        -14.62455       58.09907        5.80752
N        -13.13182       58.88654        8.53282
C        -13.21890       59.72579        9.73055
C        -12.44957       61.03144        9.56036
O        -11.82152       61.25017        8.53496
C        -12.66172       58.93784       10.95070
C        -13.63641       57.84509       11.38629
O        -11.41651       58.35707       10.65507
H        -12.19449       58.64042        8.20095
H        -14.27098       60.01431        9.94849
H        -12.55869       59.59026       11.84508
H        -10.75820       59.09588       10.58672
H        -13.81870       57.11685       10.57033
H        -13.22767       57.30914       12.26932
H        -14.60330       58.30748       11.68517
N        -12.42927       61.92837       10.58890
C        -11.61276       63.13294       10.63161
C        -10.46713       62.86547       11.59386
O        -10.70090       62.48287       12.73246
C        -12.47432       64.38246       11.00511
C        -13.36867       64.75905        9.79083
C        -11.58804       65.57984       11.41210
C        -14.30310       65.94933       10.02304
H        -12.96001       61.70586       11.44441
H        -11.16167       63.34078        9.64768
H        -13.10510       64.13500       11.88714
H        -13.99474       63.88554        9.51106
H        -12.71860       65.01014        8.92413
H        -10.94057       65.89630       10.57300
H        -12.20077       66.44293       11.73905
H        -10.95352       65.32360       12.28550
H        -14.99238       65.74275       10.86678
H        -13.73768       66.88282       10.22166
H        -14.90168       66.12744        9.10418
N         -9.18529       63.08122       11.18167
C         -7.99898       62.86821       11.99813
C         -7.52134       64.19996       12.52151
O         -8.15264       65.20468       12.23415
C         -6.89862       62.19937       11.14586
C         -7.31248       60.84694       10.65246
O         -8.29661       60.72521        9.94344
O         -6.58530       59.76146       10.97739
H         -9.03293       63.49897       10.25508
H         -8.23410       62.23468       12.88175
H         -5.97070       62.08012       11.74255
H         -6.66099       62.84355       10.26933
N         -6.44347       64.29594       13.34488
C         -6.04107       65.56937       13.92198
C         -5.65159       66.58686       12.84171
O         -6.28230       67.63326       12.82632
C         -4.97264       65.37938       15.01860
C         -4.63451       66.68983       15.68392
C         -5.62200       67.41179       16.37970
C         -3.33071       67.20588       15.61060
C         -5.30967       68.63118       16.98369
C         -3.02277       68.42674       16.21745
C         -4.01133       69.13924       16.90209
H         -5.93690       63.43694       13.61188
H         -6.93225       65.97253       14.45384
H         -4.06434       64.90574       14.61645
H         -5.36371       64.68256       15.79191
H         -6.63374       67.03400       16.45641
H         -2.55517       66.66785       15.07949
H         -6.07588       69.18147       17.51431
H         -2.01744       68.82126       16.15494
H         -3.77183       70.08466       17.36997
N         -4.68039       66.37775       11.88957
C         -4.37232       67.32686       10.82101
C         -5.59258       67.86261       10.10275
O         -5.69783       69.06848        9.92334
C         -3.53545       66.49902        9.83521
C         -2.77527       65.59942       10.76926
C         -3.86566       65.18430       11.75507
H         -3.76703       68.16040       11.24357
H         -4.19162       65.83029        9.23140
H         -2.91812       67.10387        9.13678
H         -2.23558       64.75514       10.29086
H         -2.03483       66.23869       11.30473
H         -4.49968       64.35958       11.36386
H         -3.34505       64.87725       12.67448
N         -6.55692       67.00795        9.66323
C         -7.72282       67.43566        8.90066
C         -8.53006       68.45270        9.69273
O         -8.73392       69.55550        9.20592
C         -8.59655       66.22943        8.47853
C         -7.80101       65.17478        7.67894
C         -8.70661       64.14008        7.02233
O         -9.58033       63.54291        7.92281
O         -7.94243       63.11282        6.46696
H         -6.44082       66.00905        9.88452
H         -7.37155       67.91554        7.95918
H         -9.42354       66.61975        7.84464
H         -9.03630       65.73549        9.36746
H         -7.07692       64.65172        8.33641
H         -7.23949       65.67167        6.85931
N         -8.97356       68.15916       10.94570
C         -9.68453       69.08890       11.79838
H        -10.65947       68.64833       12.09274
H         -9.08530       69.26793       12.71737
H         -9.86622       70.06494       11.30372
H         -8.76943       67.23736       11.33688
Ca        -9.11723       61.39629        7.35767
O        -12.24897       60.25575        5.71021
H        -12.85130       60.90272        6.15170
H        -12.63555       60.13771        4.80641
O        -11.96731       63.42875        6.33502
H        -11.82305       64.25025        6.86600
H        -12.84666       63.56767        5.90402

Ca 1.0



