%chk=holoCaM.loop2.water2.frame338.chk
%nprocshared=20
%mem=10GB
%nosave
#b3lyp/svp scf=(tight,noincore,xqc) Test 
#IOP(5/87=12) Density=Current Pop=(MK,readradii) iop(6/33=2) iop(6/42=6)

holoCaM.loop2.water2.frame338 

   -2  1 
C        103.44963       28.75996       10.87982
C        103.44024       28.95728        9.39248
O        102.39766       28.81403        8.77868
H        103.69717       29.73038       11.36295
H        102.45023       28.43815       11.24424
H        104.20729       28.00525       11.17197
N        104.58112       29.31132        8.74556
C        104.62875       29.71930        7.34660
C        105.40269       28.73410        6.48472
O        106.48623       28.31529        6.86644
C        105.26265       31.11538        7.29829
C        105.43634       31.59860        5.89783
O        106.66475       31.94140        5.46776
O        104.47966       31.65885        5.14279
H        105.45526       29.36249        9.29232
H        103.60372       29.81004        6.92206
H        106.25953       31.09941        7.78980
H        104.61304       31.82596        7.85120
N        104.90216       28.37505        5.26070
C        105.54340       27.43109        4.35189
C        105.94388       28.03961        3.00212
O        106.52982       27.30879        2.21445
C        104.56181       26.27860        4.09857
H        104.00742       28.78537        4.95745
H        106.46440       27.01982        4.81785
H        105.01372       25.50503        3.44254
H        104.26961       25.80175        5.05765
H        103.64089       26.66392        3.60463
N        105.63574       29.32159        2.63059
C        105.85871       29.81544        1.26117
C        106.23859       31.29700        1.15497
O        106.47940       31.74271        0.04076
C        104.61612       29.50546        0.39781
C        103.35265       30.14276        0.89383
O        103.35809       30.94043        1.97267
O        102.29477       29.89994        0.33620
H        105.06845       29.88156        3.27544
H        106.70421       29.25643        0.80298
H        104.45815       28.40522        0.40356
H        104.78850       29.82082       -0.65354
N        106.33499       32.11950        2.23813
C        106.76000       33.51088        2.15260
C        105.79543       34.44302        1.43789
O        106.16996       35.59023        1.23886
H        106.16827       31.73894        3.16913
H        107.74241       33.53985        1.63236
H        106.91199       33.91554        3.17641
N        104.55815       34.05185        1.01235
C        103.69306       34.92115        0.21559
C        103.21153       36.18676        0.92815
O        102.61710       37.01237        0.24801
C        102.47638       34.13707       -0.33721
C        101.48585       33.68371        0.70911
N        100.36445       33.02944        0.33354
O        101.67915       33.91283        1.89285
H        104.25152       33.08888        1.18964
H        104.29236       35.23948       -0.66616
H        102.83953       33.24668       -0.89536
H        101.93113       34.78765       -1.05488
H        100.17911       32.82485       -0.65897
H         99.67420       32.73679        1.03812
N        103.39236       36.41218        2.26648
C        102.92062       37.62353        2.92588
C        101.89918       37.34341        4.00766
O        102.00932       37.92034        5.08007
H        103.87289       35.71274        2.83962
H        102.43724       38.30855        2.19898
H        103.78471       38.17524        3.35650
N        100.84357       36.51180        3.77519
C         99.72140       36.33851        4.69911
C         99.65067       34.92373        5.26976
O        100.46486       34.08019        4.92391
C         98.40804       36.69429        3.94317
C         98.40369       38.15520        3.48646
O         98.24605       35.87191        2.81360
H        100.80576       36.01187        2.87658
H         99.82216       37.01772        5.57395
H         97.52314       36.58639        4.60832
H         97.95221       34.98101        3.13764
H         97.44715       38.38404        2.96961
H         98.50018       38.83026        4.36304
H         99.23738       38.35586        2.78061
N         98.64852       34.60539        6.14472
C         98.38726       33.27003        6.67187
C         97.29089       32.64790        5.82603
O         96.25539       33.25970        5.60613
C         98.03166       33.32426        8.19646
C         99.32078       33.61548        9.01226
C         97.37919       32.00977        8.67591
C         99.11643       33.69840       10.52869
H         97.95321       35.33106        6.37275
H         99.28076       32.61728        6.56243
H         97.27918       34.12608        8.36532
H         99.75858       34.57693        8.67060
H        100.06228       32.80837        8.82280
H         97.06389       32.07801        9.73528
H         96.44584       31.80193        8.11376
H         98.07668       31.16040        8.56021
H         98.77050       32.73124       10.94905
H        100.08739       33.92584       11.01734
H         98.38864       34.49601       10.78166
N         97.47233       31.38715        5.34606
C         96.53896       30.67914        4.47825
C         95.71067       29.73820        5.31925
O         95.88663       29.71342        6.52290
C         97.33994       29.84770        3.45312
C         98.34164       30.65352        2.69177
O         99.24313       31.36638        3.38847
O         98.42938       30.55614        1.47832
H         98.30954       30.86927        5.65090
H         95.86646       31.39391        3.95659
H         96.67443       29.30153        2.75118
H         97.93232       29.09190        4.01764
N         94.77067       28.93216        4.75772
C         93.99217       27.99532        5.55590
C         94.87202       26.90303        6.17806
O         94.77129       26.74760        7.38982
C         92.80063       27.43956        4.75185
C         91.98946       26.46028        5.56554
C         91.40133       26.84172        6.78679
C         91.82327       25.14385        5.10660
C         90.66895       25.91620        7.53466
C         91.08461       24.22456        5.85451
C         90.50978       24.60906        7.06839
H         94.59185       29.00331        3.74561
H         93.52596       28.57104        6.38672
H         93.13642       26.96399        3.81548
H         92.14860       28.28980        4.45509
H         91.51159       27.84920        7.16710
H         92.26670       24.82819        4.17034
H         90.22538       26.21289        8.47637
H         90.96073       23.21291        5.49221
H         89.94111       23.89397        7.64743
N         95.76591       26.11878        5.48131
C         96.59730       25.07590        6.09263
C         97.54950       25.53977        7.18988
O         98.24931       24.70913        7.75048
C         97.46017       24.56457        4.93141
C         96.56412       24.79278        3.74244
C         95.98963       26.17091        4.05052
H         95.91002       24.28960        6.47749
H         98.33003       25.24974        4.78674
H         97.84879       23.53193        5.06215
H         97.06711       24.71424        2.75541
H         95.73964       24.04583        3.79362
H         96.72334       26.97696        3.83803
H         95.08464       26.29659        3.43995
N         97.65566       26.85433        7.51507
C         98.59152       27.40605        8.47331
C         97.81060       27.85460        9.69507
O         98.12773       27.41177       10.79033
C         99.35577       28.55287        7.77961
C        100.14842       28.03071        6.56040
C        100.86816       29.10837        5.80022
O        100.82760       30.39276        6.19850
O        101.48892       28.81455        4.79198
H         97.07621       27.54145        7.02872
H         99.33325       26.64646        8.80939
H        100.03094       29.04190        8.50683
H         98.63090       29.31149        7.42415
H         99.44856       27.54670        5.84581
H        100.89062       27.27419        6.89521
N         96.72476       28.66702        9.57103
C         95.85261       29.03456       10.66550
H         94.83295       28.64322       10.45601
H         96.19174       28.61956       11.63622
H         95.79715       30.13904       10.74117
H         96.46086       29.00985        8.64573
Ca       101.38347       31.33356        2.87001
O        102.22838       33.01288        6.96652
H        102.82850       33.58830        7.50315
H        102.05884       32.22727        7.54294
O        103.72190       34.21488        4.75482
H        103.84745       35.00652        5.33417
H        104.60738       34.07560        4.33306

Ca 1.0



