%chk=holoCaM-CaMKII.loop1.water1.frame183.chk
%nprocshared=20
%mem=10GB
%nosave
#b3lyp/svp scf=(tight,noincore,xqc) Test 
#IOP(5/87=12) Density=Current Pop=(MK,readradii) iop(6/33=2) iop(6/42=6)

holoCaM-CaMKII.loop1.water1.frame183 

   0  1 
C         11.67428       60.71903       13.84177
C         11.63130       62.14368       13.38999
O         12.58534       62.86840       13.62154
H         12.62065       60.50731       14.38431
H         10.81797       60.51685       14.51832
H         11.61132       60.05586       12.95441
N         10.52472       62.62207       12.75798
C         10.39764       63.98661       12.26792
C          9.46563       64.73912       13.19402
O          8.43723       65.25397       12.77869
C          9.98015       63.92368       10.77717
C          9.80613       65.24160       10.06604
O         10.84094       66.08345        9.88003
O          8.72250       65.51777        9.57813
H          9.71637       61.99196       12.64093
H         11.36226       64.51653       12.34931
H          9.02373       63.36196       10.71077
H         10.75360       63.35058       10.22043
N          9.82190       64.84487       14.50772
C          9.09622       65.62010       15.50431
C          9.15888       67.08700       15.12997
O          8.11524       67.71520       15.01846
C          9.71622       65.41615       16.91142
C          9.64831       63.96560       17.44041
C          8.21479       63.48279       17.71719
C          8.21462       62.06652       18.31317
N          6.85258       61.62109       18.60870
H         10.68786       64.37255       14.80627
H          8.03509       65.29546       15.54455
H          9.20306       66.07667       17.64484
H         10.78628       65.71716       16.88022
H         10.20848       63.93596       18.40074
H         10.15238       63.26979       16.73639
H          7.62281       63.47033       16.77898
H          7.73294       64.17781       18.43930
H          8.81094       62.05637       19.25284
H          8.68399       61.35957       17.59302
H          6.88680       60.65749       19.01361
H          6.40760       62.26267       19.30487
H          6.28129       61.59989       17.73295
N         10.36223       67.68955       14.88391
C         10.48683       69.09398       14.49144
C          9.69916       69.43884       13.22662
O          9.43094       70.61235       13.01597
C         11.97347       69.50901       14.35728
C         12.76519       68.71451       13.34474
O         12.19506       67.73035       12.62589
O         13.95097       68.95577       13.18550
H         11.21848       67.12283       14.98347
H         10.04268       69.69480       15.31562
H         12.46519       69.37453       15.34486
H         12.03204       70.58572       14.08781
N          9.25629       68.47140       12.37453
C          8.38179       68.69978       11.23719
C          9.02114       69.54544       10.16356
O          9.09321       70.75441       10.32196
H          9.52518       67.49586       12.54917
H          7.41622       69.14297       11.56201
H          8.13608       67.70709       10.80817
N          9.48584       68.95745        9.02251
C         10.09752       69.68768        7.91063
C         10.46246       68.82172        6.68547
O         10.73691       69.42624        5.65824
C         11.31880       70.52633        8.37715
C         12.29898       69.74212        9.20626
O         12.55582       70.11974       10.47289
O         12.86351       68.76695        8.75022
H          9.37293       67.94527        8.96263
H          9.32788       70.39452        7.52919
H         10.96919       71.37134        9.00288
H         11.82828       70.98555        7.50324
N         10.50368       67.45069        6.67799
C         10.75820       66.66290        5.47628
C         12.14361       66.04707        5.45028
O         12.42272       65.30506        4.51785
H         10.37022       66.90489        7.53293
H         10.66450       67.28077        4.55753
H          9.98056       65.87049        5.41136
N         13.08911       66.36871        6.37930
C         14.47851       65.92650        6.32618
C         14.88177       65.29591        7.64544
O         14.67185       65.90671        8.68439
C         15.41771       67.11926        6.01558
C         15.09107       67.78628        4.66948
O         15.42530       68.06806        7.05417
H         12.83979       67.02250        7.12777
H         14.63013       65.19430        5.50075
H         16.45092       66.71599        5.93023
H         14.59996       68.61026        6.97959
H         15.82655       68.59285        4.46605
H         15.13983       67.04356        3.84557
H         14.07436       68.23480        4.68615
N         15.53086       64.10181        7.67347
C         15.97412       63.44356        8.89828
C         17.49095       63.49247        8.97711
O         18.16835       63.15026        8.01666
C         15.38252       62.00676        8.96087
C         13.84787       62.12818        9.18125
C         16.03896       61.17579       10.08177
C         13.09858       60.79860        9.22568
H         15.75683       63.64255        6.77633
H         15.60123       63.97791        9.79966
H         15.59389       61.48462        8.00069
H         13.40576       62.73045        8.35864
H         13.65330       62.66292       10.13856
H         15.65124       60.13810       10.08962
H         17.13279       61.08465        9.91281
H         15.86220       61.64053       11.07115
H         12.01536       61.00056        9.36691
H         13.24119       60.24398        8.27565
H         13.42930       60.17512       10.08059
N         18.08041       63.88599       10.14465
C         19.51662       64.01759       10.35403
C         20.01620       62.91672       11.27542
O         19.22274       62.11446       11.74552
C         19.81990       65.40924       10.97907
C         19.35707       66.55973       10.08154
O         19.18194       65.51070       12.22869
H         17.47479       64.07790       10.95605
H         20.06164       63.91209        9.39019
H         20.92083       65.50430       11.11821
H         19.64313       66.22617       12.73971
H         19.60620       67.53005       10.56338
H         19.87005       66.51097        9.09917
H         18.25837       66.52185        9.92547
N         21.34078       62.82039       11.57515
C         21.88798       61.83476       12.50705
C         21.32009       62.03702       13.90296
O         21.05546       61.06017       14.58853
C         23.43400       61.91664       12.57585
C         24.08587       61.56512       11.23264
O         23.83587       63.20128       12.98152
H         21.98459       63.49407       11.13364
H         21.63212       60.80761       12.16090
H         23.77287       61.16000       13.32396
H         24.74320       63.11033       13.37457
H         25.19127       61.58643       11.33599
H         23.78471       60.54333       10.91762
H         23.79784       62.28437       10.43890
N         21.11866       63.29584       14.38267
C         20.62160       63.58934       15.72474
C         19.26633       62.95532       15.93467
O         19.05844       62.24780       16.91032
C         20.49563       65.12159       15.96286
C         21.74866       65.95132       15.61521
C         23.03820       65.39605       16.22798
C         24.24926       66.22390       15.78682
N         25.48898       65.63029       16.28357
H         21.32452       64.07712       13.74861
H         21.33513       63.18527       16.47521
H         20.24393       65.27415       17.03564
H         19.66042       65.54423       15.36071
H         21.58218       66.99915       15.94797
H         21.87364       65.98966       14.51355
H         23.19783       64.35935       15.86434
H         22.95946       65.38428       17.33637
H         24.15006       67.26519       16.16500
H         24.28945       66.25546       14.67412
H         25.47925       65.59662       17.32844
H         25.59861       64.66252       15.90018
H         26.29772       66.21033       15.96443
N         18.30191       63.16824       15.00636
C         16.94697       62.64207       15.07095
C         16.96251       61.12836       15.16827
O         16.36378       60.59369       16.09121
C         16.16587       63.11463       13.82957
C         16.02884       64.65058       13.82209
C         15.32044       65.13152       12.60310
O         14.07308       64.71734       12.36886
O         15.84493       65.93584       11.85152
H         18.57285       63.72730       14.18482
H         16.42762       63.04529       15.97010
H         15.15206       62.66133       13.83692
H         16.69391       62.77746       12.91309
H         17.01369       65.15539       13.86137
H         15.44945       64.96882       14.71512
N         17.66309       60.37824       14.27404
C         17.75549       58.93385       14.33624
H         18.81541       58.64300       14.49653
H         17.14769       58.50387       15.15984
H         17.40537       58.50105       13.37662
H         18.18730       60.85068       13.52871
Ca        12.81970       65.67147       10.80281
O         15.84765       68.83990       10.37907
H         16.44894       69.59993       10.17823
H         16.45098       68.14409       10.73954

Ca 1.0



