%chk=holoCaM-CaMKII.loop4.water2.frame37.chk
%nprocshared=20
%mem=10GB
%nosave
#b3lyp/svp scf=(tight,noincore,xqc) Test 
#IOP(5/87=12) Density=Current Pop=(MK,readradii) iop(6/33=2) iop(6/42=6)

holoCaM-CaMKII.loop4.water2.frame37 

   -3  1 
C         11.89356       78.13882       20.03484
C         11.09548       78.18498       18.76988
O         11.16631       79.17064       18.04850
H         12.49080       79.06705       20.15647
H         11.20989       78.02776       20.90126
H         12.58644       77.27099       19.99989
N         10.32832       77.11889       18.41688
C          9.59271       77.07774       17.16386
C          8.43993       78.07151       17.17804
O          7.80499       78.20412       18.21595
C          9.03499       75.66494       16.90547
C          8.70635       75.48212       15.45323
O          8.19606       74.44475       15.06953
O          9.10157       76.40499       14.55421
H         10.32485       76.28979       19.03200
H         10.32959       77.30993       16.36211
H          8.15063       75.47847       17.55532
H          9.80365       74.89577       17.13549
N          8.07171       78.75528       16.05310
C          6.99758       79.73833       16.03400
C          5.83074       79.25436       15.16536
O          4.74861       79.06854       15.70479
C          7.52807       81.13031       15.55398
C          8.91046       81.47195       16.17562
C          6.48268       82.21698       15.87549
C          9.52014       82.76998       15.63866
H          8.58465       78.59741       15.18507
H          6.61672       79.86899       17.07156
H          7.68810       81.09434       14.45527
H          9.63123       80.67237       15.90180
H          8.84500       81.51611       17.28327
H          6.35043       82.30452       16.97659
H          6.78550       83.20542       15.47755
H          5.50146       81.97000       15.42071
H          9.59088       82.73471       14.52990
H          8.92568       83.65406       15.94220
H         10.54454       82.89363       16.04909
N          5.95094       79.09483       13.80916
C          4.79670       78.82962       12.94548
C          4.19787       77.43131       13.08758
O          3.02334       77.28485       12.77860
C          5.07723       79.19259       11.46631
C          6.11601       78.35559       10.76825
O          6.39537       78.59772        9.60518
O          6.73977       77.34429       11.39468
H          6.85470       79.30291       13.36700
H          4.00831       79.55251       13.25781
H          5.40912       80.25370       11.42631
H          4.12996       79.11227       10.88970
N          4.92949       76.35652       13.50686
C          4.35562       75.03235       13.72678
C          4.89497       73.99500       12.75534
O          4.54844       74.05941       11.58713
H          5.93307       76.47697       13.70906
H          3.24791       75.03106       13.63307
H          4.58112       74.74854       14.77654
N          5.73924       73.00928       13.19352
C          6.29519       71.88974       12.39482
C          7.43909       71.10518       13.10293
O          7.95201       70.19205       12.46989
C          6.76625       72.30547       10.95900
C          7.72814       73.44239       10.94720
O          8.14902       73.90439        9.89937
O          8.03832       74.01116       12.10784
H          5.98680       73.09293       14.17946
H          5.47578       71.16121       12.21381
H          5.89579       72.60263       10.34320
H          7.21719       71.43476       10.43709
N          7.88780       71.34096       14.38080
C          8.95435       70.56575       15.00619
C         10.35454       70.90408       14.51730
O         11.28790       70.26662       14.98515
H          7.44885       72.02901       14.99520
H          8.74095       69.48248       14.88167
H          8.95639       70.77784       16.09872
N         10.59485       71.90950       13.62936
C         11.92559       72.30433       13.17322
C         12.19961       73.74207       13.55974
O         11.35079       74.59229       13.32840
C         12.01853       72.19034       11.63932
C         12.04577       70.74463       11.12220
C         13.28763       70.00986       11.57367
N         13.19806       68.85419       12.27103
O         14.38944       70.46136       11.29567
H          9.80040       72.45151       13.26238
H         12.72755       71.67277       13.61384
H         12.95311       72.68446       11.28852
H         11.16157       72.73043       11.18427
H         12.06235       70.77725       10.01163
H         11.12416       70.21092       11.43753
H         12.28187       68.44740       12.50664
H         14.05175       68.35836       12.56915
N         13.42056       74.10107       14.05448
C         13.78966       75.48303       14.32971
C         14.71252       75.95712       13.21948
O         15.85610       75.52813       13.14388
C         14.42228       75.60966       15.74404
C         14.97148       77.01991       16.01941
C         13.39651       75.24377       16.82795
H         14.15126       73.37836       14.15119
H         12.88571       76.12995       14.30536
H         15.27776       74.90061       15.81436
H         15.76935       77.28008       15.29295
H         14.16624       77.78137       15.95992
H         15.43034       77.05686       17.03117
H         13.86583       75.29199       17.83393
H         12.53937       75.95029       16.80372
H         13.01269       74.21304       16.67846
N         14.23344       76.82437       12.28374
C         15.01723       77.37222       11.18172
C         16.01448       78.39144       11.71891
O         15.97744       78.69356       12.89942
C         14.02825       78.02231       10.17283
C         14.63814       78.55722        8.90398
N         15.32418       77.74659        8.06642
O         14.49075       79.73519        8.61669
H         13.24169       77.08295       12.33789
H         15.54521       76.53639       10.67478
H         13.47586       78.84024       10.68429
H         13.28635       77.25345        9.87064
H         15.45065       76.74800        8.28311
H         15.73237       78.12197        7.19752
N         16.93477       78.97541       10.90191
C         17.82334       80.04391       11.34876
C         17.01268       81.27296       11.73533
O         17.20635       81.80323       12.82062
C         18.81114       80.42251       10.22428
C         19.73820       81.52479       10.68005
C         20.62878       81.31072       11.74645
C         19.69796       82.78458       10.06128
C         21.45693       82.34340       12.19239
C         20.52553       83.81690       10.51090
C         21.40603       83.60000       11.58098
O         22.20244       84.58978       12.03134
H         17.00003       78.66075        9.92530
H         18.41681       79.68712       12.21901
H         18.23314       80.74658        9.33051
H         19.41455       79.53647        9.93041
H         20.67811       80.34714       12.23794
H         19.01559       82.97351        9.24178
H         22.13373       82.16740       13.01901
H         20.47605       84.78594       10.03114
H         22.18902       85.47636       11.64373
N         16.07452       81.76441       10.87859
C         15.24051       82.93659       11.13170
C         14.55496       82.83604       12.48069
O         14.64283       83.76888       13.26590
C         14.20188       83.07393        9.99072
C         13.34087       84.33956       10.10524
C         12.41697       84.46094        8.92556
O         12.49803       85.42369        8.17918
O         11.49289       83.51048        8.68602
H         15.92938       81.25031        9.99750
H         15.88236       83.84545       11.12691
H         13.54239       82.17640        9.97005
H         14.75271       83.12024        9.02498
H         14.00708       85.22890       10.14344
H         12.73140       84.31138       11.03351
N         13.88361       81.70569       12.82267
C         13.20483       81.52807       14.10362
C         14.18706       81.69556       15.25254
O         13.91798       82.48595       16.14651
C         12.47428       80.16657       14.15526
C         11.44312       80.07466       13.00895
C         10.60053       78.84787       13.06384
O          9.26642       78.96205       12.97096
O         11.10971       77.74340       13.10246
H         13.88677       80.93484       12.14096
H         12.41498       82.30552       14.20792
H         11.94594       80.08597       15.13097
H         13.19968       79.32541       14.08000
H         11.95404       80.05754       12.02980
H         10.77068       80.95894       13.02903
N         15.38239       81.04345       15.24770
C         16.41082       81.22986       16.25212
H         17.31278       81.66902       15.77241
H         16.08985       81.90921       17.06893
H         16.68537       80.24830       16.68975
H         15.60367       80.42230       14.46358
Ca         8.95335       75.96438       12.40171
O         11.24499       75.29302        9.95363
H         11.36939       75.86663        9.15696
H         10.89615       74.44393        9.58498
O         10.10704       78.17209        9.99252
H         10.56613       78.33303        9.13042
H          9.16092       78.40371        9.81824

Ca 1.0



