%chk=holoCaM.loop3.water2.frame297.chk
%nprocshared=20
%mem=10GB
%nosave
#b3lyp/svp scf=(tight,noincore,xqc) Test 
#IOP(5/87=12) Density=Current Pop=(MK,readradii) iop(6/33=2) iop(6/42=6)

holoCaM.loop3.water2.frame297 

   0  1 
C         29.66067       45.82399       68.66222
C         29.68309       46.96971       69.62737
O         28.85149       46.99377       70.52387
H         30.46905       45.91511       67.90714
H         29.80307       44.87384       69.21939
H         28.68250       45.79769       68.13886
N         30.61193       47.96100       69.50558
C         30.71310       49.07761       70.43102
C         30.40871       50.35017       69.68127
O         31.30300       51.13873       69.40514
C         32.10717       49.08056       71.08815
C         32.12868       49.92354       72.33334
O         33.06999       49.83453       73.09394
O         31.04277       50.63127       72.69336
H         31.28581       47.92363       68.72531
H         29.96630       48.96333       71.24891
H         32.91264       49.36257       70.37650
H         32.31518       48.04753       71.42083
N         29.12824       50.58735       69.29251
C         28.74311       51.70792       68.44650
C         29.20472       53.03359       69.03408
O         29.82590       53.79519       68.30517
C         27.23031       51.70095       68.11581
C         26.78632       50.37047       67.46117
C         25.38108       50.45450       66.85423
C         24.94420       49.08564       66.30435
N         23.65535       49.17761       65.61953
H         28.40955       49.91899       69.60359
H         29.25869       51.58573       67.46635
H         27.05524       52.52712       67.39147
H         26.61466       51.89220       69.02146
H         26.79863       49.55731       68.21644
H         27.49036       50.10160       66.64303
H         25.39982       51.19821       66.02734
H         24.64851       50.78650       67.62092
H         24.86449       48.36209       67.14735
H         25.70409       48.70105       65.58802
H         23.74284       49.80002       64.78331
H         23.36903       48.22412       65.29870
H         22.92424       49.55306       66.26574
N         29.01295       53.35161       70.35010
C         29.54020       54.59085       70.93078
C         31.05427       54.69977       70.73052
O         31.46648       55.64154       70.06687
C         29.11837       54.80763       72.40376
C         29.57469       53.76412       73.37564
O         29.16099       52.62267       73.28526
O         30.38668       54.10102       74.39485
H         28.49694       52.68546       70.94202
H         29.07156       55.43775       70.38019
H         28.00985       54.85808       72.46152
H         29.51734       55.79297       72.73064
N         31.93259       53.76236       71.20526
C         33.35701       53.78137       70.87587
C         34.30468       53.80044       72.06019
O         35.50225       53.82817       71.80951
H         31.57363       52.96203       71.74126
H         33.60970       54.66245       70.24670
H         33.58513       52.87482       70.27646
N         33.88794       53.80750       73.36088
C         34.83857       53.91204       74.47381
C         35.78998       52.71786       74.60217
O         36.74034       52.82043       75.36540
C         34.11241       54.16657       75.81352
C         33.33002       52.97515       76.31944
N         33.60372       52.44038       77.53207
O         32.43662       52.49520       75.64026
H         32.87885       53.81594       73.55718
H         35.45394       54.81780       74.27044
H         33.42462       55.03135       75.69249
H         34.86992       54.45363       76.57519
H         34.34723       52.82898       78.13007
H         33.06255       51.63766       77.88138
N         35.58562       51.55264       73.92081
C         36.48116       50.40410       73.97724
C         35.87363       49.18213       74.65222
O         36.52978       48.15025       74.64209
H         34.76050       51.46796       73.31938
H         37.41730       50.64380       74.52734
H         36.76914       50.14923       72.93486
N         34.68541       49.22960       75.32916
C         34.15658       48.11484       76.11869
C         32.71529       47.80427       75.75254
O         31.93937       48.73528       75.62882
C         34.17686       48.47227       77.61839
C         35.56344       48.74745       78.15200
C         36.26405       49.91388       77.79280
C         36.16455       47.83777       79.03752
C         37.54246       50.15711       78.30014
C         37.44421       48.08164       79.54213
C         38.13798       49.24298       79.17409
O         39.37187       49.49150       79.65603
H         34.17260       50.12212       75.37556
H         34.77535       47.19663       76.00339
H         33.74493       47.60009       78.15897
H         33.52533       49.34402       77.83608
H         35.82396       50.64501       77.12961
H         35.64632       46.93421       79.33353
H         38.06833       51.05969       78.01509
H         37.89369       47.36697       80.21923
H         39.81670       48.88508       80.26523
N         32.25531       46.51763       75.69341
C         30.84412       46.18038       75.47877
C         30.24651       45.49069       76.69855
O         30.69486       44.41762       77.07542
C         30.62888       45.30766       74.20190
C         31.50350       44.01955       74.16863
C         30.87270       46.16539       72.95803
C         31.15709       43.06964       73.02132
H         32.92180       45.74980       75.86211
H         30.24492       47.10608       75.32854
H         29.55416       45.01245       74.18640
H         31.35934       43.42595       75.08790
H         32.57897       44.28933       74.09844
H         30.22532       47.06863       72.98254
H         31.93573       46.47233       72.92326
H         30.61707       45.61365       72.03329
H         31.33980       43.53016       72.03129
H         31.79777       42.16508       73.09293
H         30.09465       42.75470       73.09675
N         29.18077       46.04391       77.34946
C         28.44604       45.32494       78.38958
C         27.66649       44.16414       77.77255
O         27.64376       44.03922       76.55647
C         27.47777       46.27887       79.11598
O         26.55758       46.82868       78.21276
H         28.85477       46.98125       77.06623
H         29.16874       44.94240       79.14353
H         28.06810       47.09814       79.58275
H         26.93670       45.72472       79.91535
H         25.93782       47.38640       78.75063
N         26.98329       43.27668       78.55348
C         26.16468       42.20200       77.98721
C         24.87618       42.71715       77.34002
O         24.14303       41.90986       76.78503
C         25.80088       41.18647       79.07483
H         27.06746       43.35715       79.57819
H         26.77026       41.65907       77.22644
H         26.72711       40.77473       79.52883
H         25.18756       41.66433       79.86784
H         25.22925       40.33933       78.63682
N         24.53204       44.03717       77.36835
C         23.32807       44.58119       76.75735
C         23.66413       45.10263       75.38207
O         22.99675       44.72026       74.43063
C         22.74648       45.68391       77.64584
H         25.16439       44.71368       77.80985
H         22.54252       43.79800       76.65610
H         22.49083       45.26568       78.64276
H         23.47480       46.51167       77.78212
H         21.82070       46.09428       77.18869
N         24.74003       45.92022       75.18968
C         25.18061       46.34483       73.86671
C         25.40463       45.12833       72.98599
O         24.78781       45.03864       71.93357
C         26.48620       47.16499       73.93586
C         26.33344       48.50432       74.67914
C         27.58631       49.31155       74.51290
O         28.31408       49.73215       75.56637
O         27.96464       49.59498       73.38621
H         25.29974       46.19440       76.00851
H         24.39476       46.98205       73.40143
H         26.78273       47.38377       72.88522
H         27.30228       46.57172       74.40695
H         26.12190       48.34118       75.75642
H         25.49634       49.08232       74.23287
N         26.24579       44.13384       73.38348
C         26.46763       42.91878       72.62822
H         27.54844       42.81976       72.40015
H         26.14711       42.04825       73.23936
H         25.89998       42.90270       71.67451
H         26.73603       44.22497       74.28201
Ca        30.23113       50.61554       74.79309
O         29.39405       52.78363       77.09455
H         29.30784       52.87144       78.07683
H         28.82198       53.50470       76.72944
O         30.72508       49.95985       77.88375
H         29.77331       49.70541       77.97766
H         30.92266       50.49715       78.69103

Ca 1.0



