%chk=holoCaM-CaMKII.loop3.water2.frame209.chk
%nprocshared=20
%mem=10GB
%nosave
#b3lyp/svp scf=(tight,noincore,xqc) Test 
#IOP(5/87=12) Density=Current Pop=(MK,readradii) iop(6/33=2) iop(6/42=6)

holoCaM-CaMKII.loop3.water2.frame209 

   0  1 
C         48.27902       66.52011       25.39276
C         49.57323       66.75034       24.66793
O         50.45298       67.41131       25.19555
H         47.43199       66.89188       24.77702
H         48.14717       65.43013       25.56204
H         48.26612       67.04043       26.37319
N         49.73559       66.22872       23.42361
C         50.94136       66.33853       22.60580
C         50.81777       67.55156       21.69579
O         50.78362       67.41452       20.48171
C         51.10392       64.98125       21.88087
C         52.21122       64.82134       20.87712
O         51.92264       64.47772       19.74221
O         53.51191       64.93834       21.19514
H         48.93326       65.71623       23.02457
H         51.83679       66.49789       23.23672
H         50.15439       64.76582       21.34301
H         51.23905       64.19520       22.65381
N         50.73036       68.79595       22.24992
C         50.59353       70.02632       21.47888
C         51.87482       70.33342       20.71599
O         51.77436       70.63736       19.53521
C         50.12582       71.20096       22.37286
C         48.73159       70.89038       22.98015
C         48.16570       71.99132       23.88900
C         47.79380       73.28019       23.14018
N         47.23001       74.26656       24.06300
H         50.74559       68.87533       23.27533
H         49.77118       69.90215       20.73827
H         50.04351       72.10868       21.73732
H         50.86382       71.39813       23.17983
H         48.80684       69.97553       23.60379
H         47.99779       70.68264       22.16913
H         48.89286       72.20913       24.69975
H         47.23544       71.59554       24.35526
H         47.04071       73.04512       22.35419
H         48.68918       73.71640       22.65062
H         47.93800       74.52070       24.78982
H         46.96775       75.12737       23.53075
H         46.37380       73.88344       24.52660
N         53.11729       70.20879       21.28600
C         54.34768       70.38726       20.49898
C         54.39440       69.43059       19.29897
O         55.03483       69.75611       18.30935
C         55.65127       70.25390       21.32887
C         55.81927       68.87039       21.88730
O         56.66562       68.12188       21.42370
O         54.97695       68.42051       22.83423
H         53.17809       69.95060       22.28100
H         54.32127       71.42673       20.10302
H         55.68547       70.99366       22.15560
H         56.50372       70.47126       20.64560
N         53.68085       68.26791       19.30044
C         53.50429       67.41763       18.13657
C         54.74770       66.68353       17.69882
O         55.14383       66.83785       16.55217
H         53.16381       68.00380       20.14789
H         53.08857       68.02679       17.30340
H         52.74829       66.64077       18.37759
N         55.36296       65.79877       18.53718
C         56.45513       64.91786       18.12027
C         56.09611       63.42864       18.22562
O         56.90895       62.62013       17.79911
C         57.75310       65.20921       18.91191
C         57.70190       64.91759       20.39722
N         58.83266       64.97678       21.13458
O         56.65618       64.61163       20.94194
H         55.00939       65.72959       19.49717
H         56.68654       65.10322       17.04836
H         58.05320       66.26889       18.76555
H         58.55230       64.57010       18.47752
H         59.73390       65.21581       20.69774
H         58.80947       64.75645       22.14141
N         54.93014       62.98444       18.78803
C         54.56981       61.57544       18.90501
C         54.48696       61.08930       20.34569
O         54.16364       59.92393       20.53053
H         54.25433       63.65886       19.15669
H         55.31100       60.92666       18.38953
H         53.59009       61.42227       18.40471
N         54.82978       61.87955       21.40669
C         54.92693       61.39818       22.78465
C         54.21193       62.29993       23.78165
O         53.79391       63.39619       23.44194
C         56.42140       61.37528       23.16379
C         57.18052       60.30698       22.42425
C         58.09716       60.63429       21.41127
C         56.99136       58.96092       22.77408
C         58.81346       59.62424       20.75964
C         57.71859       57.95602       22.13361
C         58.63382       58.28434       21.12367
O         59.34787       57.32368       20.50332
H         55.13647       62.83961       21.22802
H         54.48907       60.38012       22.88088
H         56.57585       61.19771       24.25018
H         56.84138       62.37943       22.93391
H         58.25421       61.66644       21.12224
H         56.29598       58.69359       23.56044
H         59.51553       59.88347       19.97720
H         57.57391       56.92441       22.42860
H         59.26658       56.38893       20.74185
N         54.05714       61.86872       25.06728
C         53.50412       62.66376       26.16197
C         54.46679       62.57879       27.34236
O         54.81183       61.47292       27.73981
C         52.09929       62.13498       26.58559
C         51.11402       62.19516       25.38876
C         51.55634       62.96618       27.77287
C         49.72837       61.62298       25.70223
H         54.34731       60.90189       25.28518
H         53.36609       63.72539       25.85326
H         52.19846       61.07565       26.91161
H         51.52619       61.59585       24.54992
H         50.99887       63.24616       25.04243
H         51.43393       64.03209       27.48192
H         50.58598       62.57901       28.13802
H         52.23966       62.91193       28.64201
H         49.81571       60.57087       26.04703
H         49.20114       62.22112       26.47241
H         49.10298       61.64722       24.78563
N         54.86942       63.69862       28.00600
C         55.71071       63.66497       29.20280
C         54.88672       63.99666       30.43718
O         53.69937       64.24028       30.31129
C         56.88502       64.64300       29.03632
O         56.40522       65.95468       28.90835
H         54.50287       64.60899       27.69521
H         56.12608       62.64577       29.36131
H         57.46830       64.36873       28.13159
H         57.55395       64.57108       29.92272
H         57.18880       66.55326       29.01775
N         55.45000       64.00379       31.67754
C         54.70732       64.32680       32.89541
C         54.13972       65.73314       32.83512
O         52.95129       65.90654       33.06475
C         55.61791       64.20100       34.12129
H         56.45082       63.76779       31.76022
H         53.87626       63.59753       33.03046
H         56.00606       63.16309       34.19803
H         56.47745       64.90114       34.05275
H         55.04379       64.42630       35.04614
N         54.94230       66.78202       32.49882
C         54.48798       68.16811       32.40922
C         53.27751       68.30168       31.50883
O         52.28417       68.88290       31.92301
C         55.62148       69.04808       31.86455
H         55.92586       66.57404       32.26505
H         54.22159       68.53807       33.42386
H         55.29295       70.10748       31.80389
H         56.50508       68.99076       32.53446
H         55.92703       68.71236       30.84894
N         53.29047       67.75337       30.26672
C         52.17379       67.83021       29.33033
C         50.90531       67.26660       29.95055
O         49.90905       67.97472       30.00309
C         52.53170       67.07665       28.03611
C         53.69078       67.76390       27.28726
C         54.09354       66.98052       26.07945
O         53.27825       66.74055       25.20874
O         55.35995       66.54277       25.94698
H         54.13682       67.23237       29.99288
H         51.98186       68.89432       29.06384
H         51.64678       67.05385       27.36837
H         52.79733       66.02877       28.28693
H         54.58419       67.87070       27.93502
H         53.37172       68.78089       26.97250
N         50.87659       66.01260       30.47241
C         49.70251       65.45942       31.10887
H         48.87122       65.38763       30.37726
H         49.92888       64.44291       31.49689
H         49.39726       66.10091       31.96321
H         51.72249       65.43880       30.44353
Ca        54.48007       66.25453       22.71069
O         56.83226       64.21680       24.90564
H         57.70649       64.06082       24.46830
H         56.91878       63.78275       25.79051
O         58.11561       66.84299       23.79488
H         58.75048       66.65199       24.52997
H         58.62537       67.41954       23.17211

Ca 1.0



