%chk=holoCaM.loop4.water3.frame422.chk
%nprocshared=20
%mem=10GB
%nosave
#b3lyp/svp scf=(tight,noincore,xqc) Test 
#IOP(5/87=12) Density=Current Pop=(MK,readradii) iop(6/33=2) iop(6/42=6)

holoCaM.loop4.water3.frame422 

   -3  1 
C         96.28377       82.28557       59.53660
C         95.92582       81.36937       60.66488
O         94.76719       81.36232       61.05532
H         97.35887       82.20902       59.27601
H         95.67737       82.02092       58.64466
H         96.05726       83.33258       59.83003
N         96.86719       80.57624       61.25724
C         96.53808       79.69253       62.36728
C         97.79091       79.04774       62.95194
O         98.49067       78.37854       62.20269
C         95.58505       78.55051       61.90837
C         95.00176       77.85305       63.10216
O         94.41541       76.79059       62.98528
O         95.04868       78.48957       64.28632
H         97.84422       80.63637       60.93176
H         96.04769       80.32221       63.13928
H         96.15300       77.83548       61.27282
H         94.72886       78.91115       61.30453
N         98.12366       79.17450       64.27705
C         99.31736       78.54404       64.84665
C         99.00179       77.49432       65.92302
O         99.93693       76.82829       66.34500
C        100.34309       79.61640       65.34486
C         99.95954       80.27209       66.69958
C        100.56561       80.68078       64.24882
C        101.07068       81.17385       67.25773
H         97.52885       79.74349       64.89026
H         99.83908       77.98254       64.04249
H        101.30386       79.07929       65.51044
H         99.80607       79.47288       67.45562
H         99.01642       80.85174       66.61061
H         99.64329       81.28511       64.09923
H        101.39058       81.37280       64.50804
H        100.83218       80.19700       63.28649
H        100.78721       81.54359       68.26526
H        102.02024       80.60244       67.35275
H        101.24488       82.05984       66.61494
N         97.74612       77.30624       66.44207
C         97.45264       76.34800       67.51767
C         96.29581       75.37691       67.20141
O         96.01610       74.53480       68.04375
C         97.25519       77.11603       68.84729
C         96.19226       78.16650       68.78109
O         94.92905       77.82368       68.50689
O         96.48172       79.34388       68.92219
H         96.98227       77.91619       66.12709
H         98.33405       75.69527       67.69900
H         98.21675       77.61904       69.09386
H         97.02571       76.40919       69.67326
N         95.62327       75.37802       66.00953
C         94.62473       74.37426       65.62576
C         93.28658       74.38013       66.36774
O         92.45614       73.54632       66.03483
H         95.89519       76.05574       65.28551
H         95.08281       73.36575       65.72364
H         94.38280       74.52231       64.55152
N         92.99507       75.25110       67.37280
C         91.74566       75.23181       68.14829
C         90.48498       75.70068       67.39701
O         89.43233       75.73820       68.02027
C         91.94248       76.03533       69.45580
C         92.21313       77.50015       69.27454
O         92.20299       78.01652       68.17077
O         92.51557       78.24732       70.34963
H         93.73221       75.89730       67.66330
H         91.56541       74.18629       68.48418
H         92.81231       75.59608       69.99129
H         91.05203       75.92343       70.11080
N         90.48543       76.02988       66.07258
C         89.27449       76.38382       65.33316
C         88.75988       77.80377       65.54497
O         87.75321       78.13249       64.93491
H         91.35229       75.92248       65.53605
H         88.47492       75.64397       65.55897
H         89.49069       76.30016       64.24623
N         89.39537       78.70704       66.34617
C         88.96902       80.10267       66.51595
C         90.08096       81.05074       66.06990
O         91.12029       80.56806       65.64428
C         88.52606       80.35042       67.97503
C         89.62699       80.10478       69.01878
C         89.17740       80.37796       70.43360
N         90.04522       80.21187       71.45734
O         88.03585       80.74754       70.66752
H         90.23950       78.40584       66.84033
H         88.08574       80.32158       65.87714
H         87.66726       79.67920       68.19618
H         88.16733       81.39740       68.07044
H         90.49088       80.76176       68.79551
H         89.94318       79.04527       68.97270
H         91.01223       79.91098       71.28235
H         89.75400       80.38890       72.42932
N         89.93144       82.41482       66.12632
C         90.95889       83.33718       65.63923
C         91.52880       84.15042       66.79244
O         90.82411       84.97352       67.35983
C         90.39144       84.28664       64.54017
C         91.51013       85.13468       63.91017
C         89.66505       83.51952       63.42874
H         89.06296       82.81481       66.50949
H         91.78507       82.75691       65.17837
H         89.64611       84.97182       65.00332
H         92.01264       85.74911       64.67738
H         92.26602       84.48405       63.41895
H         91.09549       85.83093       63.15078
H         89.26506       84.23626       62.67820
H         90.35164       82.81022       62.92178
H         88.80067       82.96080       63.84429
N         92.82192       83.96646       67.18271
C         93.48366       84.77412       68.20427
C         93.77109       86.16738       67.65273
O         93.57356       86.40102       66.47377
C         94.80112       84.05710       68.61031
C         95.59884       84.68327       69.72491
N         95.06254       84.85664       70.95344
O         96.76031       85.00360       69.52530
H         93.35655       83.21201       66.73595
H         92.82081       84.83137       69.09492
H         95.44815       83.96733       67.71389
H         94.54501       83.03553       68.94977
H         94.09143       84.57866       71.15077
H         95.62636       85.26624       71.71193
N         94.24939       87.14845       68.45719
C         94.69600       88.45548       67.96820
C         95.92052       88.31666       67.05966
O         95.88689       88.86405       65.96538
C         94.84804       89.47980       69.13212
C         95.41001       88.92388       70.42314
C         94.53035       88.69392       71.50055
C         96.76203       88.59372       70.56816
C         94.98778       88.11568       72.68241
C         97.22245       88.01361       71.75743
C         96.33196       87.76506       72.81478
O         96.75089       87.18451       73.95667
H         94.30520       86.93602       69.45907
H         93.89764       88.90940       67.33469
H         93.80373       89.79143       69.35876
H         95.36636       90.40842       68.80853
H         93.47713       88.93490       71.41747
H         97.45285       88.78253       69.76235
H         94.28988       87.92696       73.48889
H         98.26728       87.74932       71.85359
H         97.66622       86.90013       74.08488
N         97.00390       87.55471       67.39971
C         98.17126       87.37879       66.52250
C         97.85012       86.67306       65.20336
O         98.73477       86.60102       64.36064
C         99.28367       86.54569       67.21037
C         99.85320       87.15735       68.49693
C        100.47242       88.50467       68.25700
O        101.40444       88.62425       67.47736
O        100.00653       89.58673       68.90849
H         96.99266       87.08747       68.31147
H         98.57074       88.38871       66.28084
H        100.13392       86.41563       66.50311
H         98.88421       85.53357       67.44297
H        100.63480       86.47554       68.89555
H         99.06126       87.23244       69.26481
N         96.62962       86.12958       64.94550
C         96.29070       85.45492       63.70040
C         95.55386       86.43788       62.81687
O         96.00306       86.68927       61.70712
C         95.45388       84.19242       63.99949
C         96.24158       83.18143       64.85658
C         95.41769       81.99740       65.28376
O         95.94620       81.09187       66.12603
O         94.26811       81.85654       64.90370
H         95.88799       86.20315       65.64848
H         97.20685       85.13245       63.15508
H         95.14785       83.70489       63.04754
H         94.53484       84.49296       64.54956
H         96.59427       83.68393       65.77818
H         97.13097       82.82023       64.29653
N         94.44322       87.08097       63.26563
C         93.75921       88.08817       62.48834
H         92.90470       88.49459       63.07105
H         94.45590       88.92360       62.26041
H         93.37705       87.64790       61.54488
H         94.08671       86.87764       64.20423
Ca        94.38006       78.02719       66.34930
O         93.60914       80.75267       68.04940
H         94.28374       80.73008       68.77216
H         92.75722       80.57244       68.51508
O         91.86794       77.78574       63.89095
H         91.98050       76.85958       63.56061
H         91.16158       78.16196       63.31042
O         92.51183       80.52455       63.17841
H         93.45424       80.25097       63.06198
H         92.10145       80.37924       62.29102

Ca 1.0



