%chk=holoCaM-CaMKII.loop4.water2.frame170.chk
%nprocshared=20
%mem=10GB
%nosave
#b3lyp/svp scf=(tight,noincore,xqc) Test 
#IOP(5/87=12) Density=Current Pop=(MK,readradii) iop(6/33=2) iop(6/42=6)

holoCaM-CaMKII.loop4.water2.frame170 

   -3  1 
C         92.59181       42.86275        3.72630
C         91.50142       41.83262        3.71825
O         91.75891       40.68759        3.39286
H         93.55965       42.42230        3.40651
H         92.32570       43.68294        3.02518
H         92.70352       43.28232        4.74789
N         90.24079       42.18965        4.07269
C         89.08581       41.29293        4.05829
C         88.80267       40.78537        2.63996
O         88.64960       41.58881        1.73165
C         87.89484       42.04610        4.68159
C         86.58263       41.34879        4.52946
O         85.67956       41.93705        3.95973
O         86.36704       40.08099        4.91843
H         90.10172       43.16957        4.36755
H         89.28151       40.42450        4.71525
H         87.79461       43.04068        4.19370
H         88.10867       42.21957        5.75761
N         88.72671       39.43919        2.39957
C         88.55899       38.81689        1.08420
C         87.21290       38.08805        1.01711
O         86.40528       38.46506        0.17861
C         89.80773       37.91574        0.79658
C         91.04534       38.83800        0.61011
C         89.61990       37.01880       -0.43870
C         92.39441       38.12570        0.50309
H         88.81777       38.80337        3.20038
H         88.52316       39.59429        0.28760
H         89.96788       37.24447        1.67064
H         91.11988       39.50792        1.47742
H         90.90382       39.47527       -0.29054
H         88.75715       36.33612       -0.29579
H         89.45836       37.62901       -1.35109
H         90.50698       36.36890       -0.58903
H         92.58973       37.52257        1.41312
H         92.44985       37.47948       -0.39435
H         93.19711       38.89062        0.41521
N         86.87924       37.06173        1.85809
C         85.55919       36.40046        1.82306
C         84.38175       37.33777        2.14610
O         83.24713       36.90155        2.00699
C         85.50792       35.16218        2.76398
C         85.80026       35.49676        4.20427
O         85.79968       34.62585        5.05730
O         86.12191       36.76548        4.50762
H         87.59388       36.73315        2.52360
H         85.40043       36.02589        0.78734
H         86.26038       34.42010        2.42157
H         84.50484       34.68577        2.69102
N         84.55625       38.63002        2.54434
C         83.45891       39.56595        2.72537
C         82.58125       39.28582        3.92458
O         81.37188       39.20230        3.76793
H         85.50460       39.00799        2.66314
H         82.85715       39.62343        1.79251
H         83.88625       40.57515        2.89102
N         83.12555       39.24325        5.17180
C         82.35051       39.26547        6.41024
C         82.64167       40.55263        7.19342
O         82.15447       40.69683        8.30583
C         82.62482       37.98972        7.23998
C         84.01954       37.83094        7.78650
O         84.32575       36.71922        8.48130
O         84.86618       38.69561        7.63842
H         84.14829       39.28019        5.25202
H         81.26099       39.26023        6.18941
H         82.39416       37.11068        6.60023
H         81.92968       37.96937        8.10727
N         83.41628       41.54239        6.65367
C         83.78105       42.77516        7.32265
C         84.68317       42.52152        8.49842
O         84.44174       43.09144        9.55149
H         83.77769       41.44894        5.69706
H         82.87836       43.35660        7.61130
H         84.36527       43.39304        6.60512
N         85.78656       41.72867        8.35737
C         86.78674       41.50227        9.40711
C         88.07377       40.91121        8.82318
O         88.09764       40.49635        7.67249
C         86.29833       40.55047       10.54047
C         85.04096       40.98775       11.30274
C         84.74285       40.06652       12.45706
N         83.58395       39.36809       12.50559
O         85.55098       39.96041       13.36768
H         85.94903       41.34302        7.41604
H         87.06291       42.49770        9.82046
H         87.12073       40.46139       11.28312
H         86.10928       39.54208       10.11453
H         84.17556       40.97246       10.61037
H         85.18372       42.01130       11.71144
H         82.88597       39.44313       11.75109
H         83.38194       38.74754       13.30324
N         89.20927       40.87851        9.57613
C         90.49299       40.37993        9.09069
C         90.96850       39.26575       10.00654
O         91.07228       39.48910       11.20549
C         91.51981       41.54413        9.02403
C         92.89875       41.05333        8.54527
C         91.02798       42.64519        8.06651
H         89.17843       41.26799       10.53146
H         90.40188       39.98237        8.05870
H         91.63870       41.98708       10.03771
H         93.61650       41.90070        8.51196
H         93.31333       40.29341        9.23950
H         92.82821       40.60819        7.52935
H         90.05560       43.06079        8.40362
H         91.75778       43.48199        8.03301
H         90.90357       42.24307        7.03702
N         91.31616       38.04851        9.49467
C         91.81541       36.94176       10.30755
C         93.28946       36.68515       10.01335
O         93.88275       37.41660        9.23454
C         90.93911       35.66849       10.14146
C         91.19230       34.84319        8.89550
N         90.90275       35.29705        7.65842
O         91.65414       33.71818        9.01985
H         91.26977       37.92517        8.47823
H         91.74532       37.21427       11.38292
H         89.86400       35.92747       10.23199
H         91.16519       35.00620       11.00499
H         90.46894       36.21355        7.51465
H         91.08600       34.70416        6.83498
N         93.94189       35.64962       10.61183
C         95.35703       35.33507       10.41789
C         95.73253       35.17037        8.95680
O         96.71659       35.76458        8.54057
C         95.71129       34.04746       11.19495
C         97.12504       33.58410       10.92291
C         98.22177       34.42675       11.17097
C         97.35061       32.30389       10.38804
C         99.51965       33.99854       10.87869
C         98.64925       31.87473       10.10639
C         99.73888       32.72299       10.34781
O        100.99683       32.32461       10.07265
H         93.39879       35.04328       11.24402
H         95.96974       36.16746       10.82898
H         94.99908       33.24399       10.90036
H         95.57955       34.23365       12.28227
H         98.07341       35.41976       11.57488
H         96.52175       31.63644       10.18510
H        100.35551       34.66146       11.06202
H         98.80556       30.88512        9.69592
H        101.18975       31.44989        9.70606
N         95.03214       34.34988        8.13424
C         95.38369       34.14926        6.73057
C         95.33931       35.47092        5.97495
O         96.32686       35.82867        5.34795
C         94.45646       33.09380        6.08868
C         94.66546       31.71286        6.74603
C         93.78837       30.65990        6.13721
O         92.90485       29.99427        6.90596
O         93.88868       30.38125        4.95321
H         94.21490       33.86259        8.52760
H         96.42075       33.74930        6.65999
H         94.70536       33.00516        5.00769
H         93.39334       33.40941        6.17926
H         94.44422       31.76231        7.83228
H         95.72638       31.40206        6.62698
N         94.23526       36.26593        6.02437
C         94.13138       37.55596        5.33152
C         95.13141       38.59823        5.82940
O         95.26207       39.62973        5.18400
C         92.70734       38.11199        5.50474
C         91.67802       37.22055        4.78923
C         90.26386       37.55044        5.14898
O         89.35873       36.89608        4.65970
O         89.97813       38.50804        6.04976
H         93.43593       35.92721        6.58047
H         94.33174       37.39101        4.24907
H         92.62401       39.14072        5.10114
H         92.50377       38.16313        6.59441
H         91.82429       36.15739        5.05794
H         91.81824       37.32138        3.69292
N         95.85820       38.41949        6.96390
C         96.83867       39.37410        7.43034
H         97.65174       39.47485        6.68055
H         96.36247       40.36092        7.60680
H         97.28407       39.01733        8.38473
H         95.70569       37.58652        7.53110
Ca        87.04414       38.20334        5.96031
O         87.66104       37.15471        9.02554
H         87.74733       36.16964        9.05784
H         86.76888       37.32994        9.41460
O         88.15339       35.03209        6.56595
H         88.58947       34.15260        6.68900
H         87.29717       34.95207        7.05492

Ca 1.0



