%chk=holoCaM.loop2.water2.frame342.chk
%nprocshared=20
%mem=10GB
%nosave
#b3lyp/svp scf=(tight,noincore,xqc) Test 
#IOP(5/87=12) Density=Current Pop=(MK,readradii) iop(6/33=2) iop(6/42=6)

holoCaM.loop2.water2.frame342 

   -2  1 
C         -2.23848       28.26983       20.28421
C         -3.58702       28.93805       20.21169
O         -4.50927       28.36487       19.65222
H         -1.49846       28.90068       20.82405
H         -2.32467       27.30565       20.82836
H         -1.85009       28.08054       19.26255
N         -3.77118       30.15831       20.78258
C         -5.04647       30.87113       20.82006
C         -5.55913       31.24683       19.43226
O         -4.88308       31.97824       18.72254
C         -4.87010       32.13399       21.68960
C         -6.05378       33.04818       21.64993
O         -5.90387       34.19795       21.26843
O         -7.29257       32.62454       21.95002
H         -2.95889       30.58671       21.25478
H         -5.80134       30.22847       21.31766
H         -3.98946       32.70965       21.32525
H         -4.66764       31.82825       22.73650
N         -6.78715       30.80743       19.01305
C         -7.41725       31.20221       17.75652
C         -8.84627       31.71165       18.00516
O         -9.77809       31.19854       17.40180
C         -7.41153       29.99916       16.80396
H         -7.31004       30.16249       19.61818
H         -6.83452       32.01528       17.27227
H         -7.98957       29.15479       17.23937
H         -7.85747       30.27762       15.82508
H         -6.36864       29.66023       16.62879
N         -9.08295       32.72208       18.89483
C        -10.42888       33.25695       19.21078
C        -10.45746       34.42456       20.22753
O        -11.53035       34.98676       20.40118
C        -11.40244       32.13869       19.71347
C        -10.86263       31.36157       20.88651
O         -9.64317       31.66735       21.35157
O        -11.48951       30.42740       21.35909
H         -8.24448       33.09726       19.34286
H        -10.84611       33.67409       18.26825
H        -11.60048       31.41398       18.90057
H        -12.38711       32.58319       19.97664
N         -9.37114       34.85144       20.93625
C         -9.38218       35.96036       21.87493
C        -10.31401       35.75366       23.04533
O        -11.10222       36.64439       23.32884
H         -8.46326       34.40588       20.82839
H         -9.62660       36.90671       21.34602
H         -8.35585       36.06812       22.29348
N        -10.24515       34.62142       23.80046
C        -10.99515       34.43566       25.04207
C        -10.05490       34.21738       26.23029
O        -10.54468       33.98043       27.32609
C        -12.05220       33.31058       24.90497
C        -11.55820       31.91207       24.62995
N        -12.44674       30.89180       24.59416
O        -10.37470       31.68481       24.44534
H         -9.60226       33.87383       23.49830
H        -11.58432       35.34837       25.28042
H        -12.76147       33.58600       24.09429
H        -12.63010       33.27669       25.85491
H        -13.45070       31.06211       24.75415
H        -12.13368       29.92670       24.42160
N         -8.69546       34.31943       26.10314
C         -7.75656       34.13626       27.20235
C         -7.65610       32.71006       27.72751
O         -6.90040       32.50714       28.66662
H         -8.28827       34.60041       25.20168
H         -8.03740       34.82205       28.03132
H         -6.74126       34.42768       26.85542
N         -8.39339       31.68371       27.20978
C         -8.43150       30.33527       27.76917
C         -8.18447       29.27181       26.70025
O         -8.83295       29.29089       25.66367
C         -9.80318       30.11799       28.44622
C         -9.95273       31.03826       29.66379
O        -10.86007       30.37522       27.55639
H         -9.03015       31.87300       26.43167
H         -7.66808       30.20902       28.56880
H         -9.86571       29.07340       28.83072
H        -10.95860       29.57728       26.97705
H        -10.92158       30.84647       30.16850
H         -9.13427       30.84864       30.39226
H         -9.91891       32.10721       29.36481
N         -7.26912       28.28223       26.91726
C         -6.98597       27.20789       25.96108
C         -8.21447       26.31684       25.76483
O         -8.63018       25.65582       26.70659
C         -5.75492       26.36001       26.44139
C         -4.48085       27.24755       26.52078
C         -5.50466       25.15305       25.51611
C         -3.25856       26.53178       27.10148
H         -6.75454       28.29747       27.80988
H         -6.71316       27.66463       24.98683
H         -5.98004       25.96277       27.45708
H         -4.66636       28.12019       27.17805
H         -4.22600       27.63139       25.51027
H         -5.28807       25.48866       24.48083
H         -4.66946       24.52323       25.87771
H         -6.37996       24.48142       25.51506
H         -3.48640       26.14273       28.11656
H         -2.92012       25.70014       26.45241
H         -2.41629       27.25089       27.17768
N         -8.82246       26.23151       24.54288
C         -9.90467       25.29036       24.23810
C         -9.32404       23.90069       23.99441
O         -8.11257       23.76517       24.00860
C        -10.67591       25.73829       22.97514
C        -11.32368       27.08626       23.14566
O        -10.57138       28.18379       23.34928
O        -12.53745       27.19603       23.07390
H         -8.46954       26.82800       23.78333
H        -10.62443       25.26294       25.08658
H        -11.47397       24.99659       22.75478
H         -9.99074       25.77829       22.10054
N        -10.11231       22.81107       23.75826
C         -9.54419       21.48910       23.49124
C         -8.76748       21.46694       22.16754
O         -7.62361       21.03779       22.20755
C        -10.60818       20.36764       23.55789
C         -9.99074       18.98803       23.44935
C         -9.12131       18.50992       24.44899
C        -10.28851       18.15989       22.35280
C         -8.56625       17.22956       24.35162
C         -9.72645       16.88243       22.25748
C         -8.86815       16.41681       23.25662
H        -11.13762       22.91776       23.79921
H         -8.83881       21.25712       24.32183
H        -11.36976       20.49225       22.77381
H        -11.14503       20.42513       24.52931
H         -8.87955       19.12109       25.30921
H        -10.95157       18.50307       21.56889
H         -7.90374       16.86557       25.12689
H         -9.95828       16.25167       21.40912
H         -8.43835       15.42579       23.18311
N         -9.27284       21.91888       20.96364
C         -8.53085       21.88807       19.69628
C         -7.23385       22.68751       19.67024
O         -6.54989       22.66878       18.65558
C         -9.49227       22.53524       18.68985
C        -10.84080       22.19003       19.26770
C        -10.60507       22.44504       20.75099
H         -8.34020       20.81900       19.45370
H         -9.41156       23.64663       18.76260
H         -9.32243       22.24304       17.63148
H        -11.69293       22.75542       18.83498
H        -11.00977       21.09936       19.11659
H        -10.59245       23.53314       20.97514
H        -11.41006       21.95155       21.31168
N         -6.85147       23.43430       20.73722
C         -5.66743       24.26860       20.79967
C         -4.64732       23.57124       21.67848
O         -3.50870       23.42125       21.25895
C         -6.07257       25.65428       21.34309
C         -7.13314       26.31860       20.44031
C         -7.63529       27.61787       20.99441
O         -7.12937       28.12572       22.13243
O         -8.53490       28.20877       20.41948
H         -7.44468       23.45233       21.57126
H         -5.21187       24.41291       19.79355
H         -5.17731       26.30924       21.41818
H         -6.50257       25.53149       22.36173
H         -8.01472       25.64955       20.34871
H         -6.71305       26.49221       19.42575
N         -5.01061       23.02990       22.87473
C         -4.10669       22.24986       23.68690
H         -3.26630       22.88180       24.03631
H         -4.65144       21.84659       24.56851
H         -3.71960       21.38995       23.09843
H         -5.97617       23.11919       23.20394
Ca        -8.16240       30.69017       22.70824
O         -5.42188       29.73205       24.21491
H         -5.08999       29.14865       23.48829
H         -4.60398       30.06508       24.66122
O         -6.89286       32.63165       24.60097
H         -6.82822       31.70489       24.93529
H         -5.97547       32.99510       24.66523

Ca 1.0



