%chk=holoCaM-CaMKII.loop1.water2.frame350.chk
%nprocshared=20
%mem=10GB
%nosave
#b3lyp/svp scf=(tight,noincore,xqc) Test 
#IOP(5/87=12) Density=Current Pop=(MK,readradii) iop(6/33=2) iop(6/42=6)

holoCaM-CaMKII.loop1.water2.frame350 

   0  1 
C         34.77352       66.61468       40.98442
C         35.82705       66.90472       42.01126
O         35.51817       66.88899       43.19299
H         33.95918       67.36444       41.06868
H         35.18795       66.65657       39.95519
H         34.35635       65.60061       41.15757
N         37.11271       67.14775       41.63888
C         38.15995       67.42601       42.61109
C         37.98077       68.83709       43.16452
O         38.13304       69.78951       42.41162
C         39.52957       67.25829       41.93142
C         40.69014       67.34101       42.86878
O         40.52169       67.52327       44.19053
O         41.81174       67.20675       42.42129
H         37.35656       67.08353       40.63784
H         38.09347       66.65717       43.41520
H         39.64826       68.02100       41.13062
H         39.56871       66.25179       41.45943
N         37.59267       69.04335       44.45529
C         37.28993       70.37570       44.97973
C         38.52690       71.21992       45.28899
O         38.34512       72.41146       45.50678
C         36.40127       70.28696       46.23883
C         35.04849       69.53905       46.10821
C         33.99520       70.18035       45.17882
C         34.12497       69.80018       43.69215
N         33.09334       70.45596       42.89062
H         37.38362       68.21821       45.03077
H         36.72782       70.93889       44.21449
H         36.17855       71.31600       46.59769
H         36.98837       69.78046       47.03529
H         34.61715       69.57663       47.13306
H         35.17538       68.46606       45.85981
H         33.99019       71.28103       45.32783
H         33.00014       69.79264       45.49203
H         33.99555       68.70409       43.60386
H         35.10578       70.05809       43.26483
H         33.20709       71.49413       42.94552
H         33.19591       70.15775       41.89315
H         32.14203       70.18347       43.22840
N         39.79046       70.70226       45.37256
C         40.97364       71.51947       45.66426
C         42.05829       71.40783       44.58770
O         43.06396       72.09234       44.70593
C         41.51824       71.22123       47.08071
C         42.07349       69.84391       47.31707
O         42.58059       69.55006       48.52912
O         42.08741       68.99754       46.43911
H         39.91687       69.69109       45.25763
H         40.68585       72.59354       45.69179
H         40.70071       71.39561       47.81474
H         42.32802       71.94926       47.30584
N         41.90363       70.61715       43.48410
C         42.82905       70.59974       42.35924
C         44.18950       69.95737       42.58383
O         44.94094       69.91879       41.61943
H         41.03769       70.07806       43.36499
H         42.96878       71.64094       41.99638
H         42.35055       70.02352       41.53727
N         44.59869       69.42549       43.77362
C         45.92255       68.80184       43.93267
C         46.11153       67.53512       43.07396
O         47.24346       67.09064       42.94698
C         46.23376       68.52090       45.42913
C         45.23858       67.59650       46.07431
O         44.25759       67.09204       45.31763
O         45.32252       67.30474       47.25566
H         43.97411       69.49617       44.58772
H         46.67507       69.54476       43.58615
H         46.21136       69.48546       45.97881
H         47.25344       68.08788       45.52517
N         45.06484       66.91223       42.45351
C         45.19671       65.79951       41.51870
C         44.49373       64.52075       41.94809
O         44.40345       63.62636       41.11879
H         44.12015       67.26836       42.61055
H         46.25861       65.55261       41.30716
H         44.73841       66.13161       40.56128
N         44.01701       64.32706       43.21329
C         43.35778       63.09024       43.64954
C         41.96113       63.35352       44.28569
O         41.49256       64.63792       44.02001
C         44.24736       62.35384       44.68309
C         45.49775       61.76746       44.02677
O         44.65213       63.22414       45.70851
H         44.16822       65.06373       43.90958
H         43.20407       62.40911       42.78273
H         43.69497       61.49050       45.12062
H         43.83612       63.48755       46.20159
H         46.11510       62.56169       43.55779
H         46.11170       61.24541       44.79207
H         45.20629       61.02581       43.25246
N         40.98227       62.36215       43.82309
C         39.60622       62.57931       44.32039
C         39.40686       61.82908       45.63096
O         39.69620       60.64185       45.67635
C         38.56442       62.13520       43.24980
C         39.00788       62.55920       41.82081
C         37.18938       62.74935       43.60255
C         38.05533       62.09862       40.71598
H         41.31551       61.37971       43.96190
H         39.42524       63.66674       44.46801
H         38.49572       61.02510       43.25175
H         39.98523       62.07901       41.59612
H         39.14036       63.66103       41.75923
H         36.39618       62.40724       42.90981
H         36.87570       62.46683       44.62748
H         37.24126       63.86130       43.54840
H         37.07562       62.61123       40.78737
H         38.49348       62.34674       39.72606
H         37.90642       60.99878       40.76885
N         38.88356       62.44635       46.72596
C         38.71934       61.77338       48.01381
C         37.26067       61.40680       48.22926
O         36.43415       61.70793       47.38913
C         39.24858       62.67485       49.15947
C         40.69806       63.11116       48.93776
O         38.44301       63.81685       49.27354
H         38.55007       63.41230       46.63541
H         39.29158       60.82077       48.02431
H         39.20219       62.08989       50.10735
H         38.48192       64.11396       50.22048
H         40.78877       63.72574       48.01618
H         41.03043       63.73212       49.79713
H         41.36364       62.22785       48.85498
N         36.87961       60.72300       49.34473
C         35.48604       60.37742       49.62833
C         34.64782       61.63637       49.77003
O         33.61582       61.75348       49.12156
C         35.37601       59.51993       50.91885
C         36.03353       58.14849       50.74756
O         35.96633       60.17155       52.01709
H         37.60804       60.45085       50.01831
H         35.07069       59.76488       48.79697
H         34.29442       59.31927       51.11608
H         35.23399       60.52771       52.58453
H         35.90048       57.55259       51.67530
H         35.55789       57.59922       49.90735
H         37.12050       58.24237       50.54540
N         35.05636       62.62752       50.60244
C         34.32279       63.86391       50.85702
C         34.08483       64.63285       49.56998
O         32.95339       65.01678       49.31265
C         35.10097       64.72134       51.88577
C         35.14372       64.00767       53.25428
C         36.02755       64.72766       54.27756
C         36.01755       64.03107       55.65483
N         36.50422       62.64828       55.60015
H         35.96616       62.49388       51.06928
H         33.33024       63.63218       51.30591
H         34.60216       65.70611       52.02279
H         36.13193       64.90287       51.50701
H         35.55070       62.98964       53.12656
H         34.10688       63.92372       53.64722
H         35.66181       65.76848       54.41203
H         37.07154       64.77001       53.89606
H         34.98744       64.04196       56.07480
H         36.67166       64.61419       56.33970
H         37.45039       62.60996       55.15663
H         36.57165       62.27289       56.57354
H         35.83716       62.03740       55.07709
N         35.10637       64.86916       48.70245
C         34.94846       65.62252       47.45880
C         33.90560       64.96930       46.56408
O         32.90863       65.60969       46.25909
C         36.30574       65.76146       46.72583
C         37.32893       66.52890       47.59022
C         38.66285       66.69503       46.92587
O         39.18933       67.92320       46.79464
O         39.30656       65.72625       46.56134
H         36.02670       64.48293       48.94487
H         34.59808       66.64964       47.70756
H         36.15080       66.31025       45.77406
H         36.69884       64.75511       46.47400
H         37.51125       66.00166       48.54139
H         36.91985       67.52957       47.83989
N         34.05782       63.68764       46.13232
C         33.08192       62.98159       45.32635
H         32.19395       63.60436       45.09030
H         33.55232       62.65744       44.37480
H         32.73731       62.08059       45.87801
H         34.90175       63.17351       46.39932
Ca        42.49726       65.79787       45.67299
O         41.72185       66.79323       49.22503
H         42.45383       66.90384       48.56736
H         42.18363       66.72492       50.09836
O         43.60385       64.31514       48.56001
H         44.23171       65.01590       48.25339
H         43.43461       64.52814       49.51086

Ca 1.0



