%chk=holoCaM-CaMKII.loop1.water2.frame207.chk
%nprocshared=20
%mem=10GB
%nosave
#b3lyp/svp scf=(tight,noincore,xqc) Test 
#IOP(5/87=12) Density=Current Pop=(MK,readradii) iop(6/33=2) iop(6/42=6)

holoCaM-CaMKII.loop1.water2.frame207 

   0  1 
C         26.33561       69.18422       42.03305
C         25.45405       69.40498       43.23016
O         25.75306       70.28019       44.02897
H         27.36276       68.92606       42.36798
H         25.95987       68.35442       41.39697
H         26.37377       70.10866       41.42069
N         24.35033       68.62889       43.42714
C         23.45914       68.75823       44.58120
C         24.28426       68.54932       45.83780
O         24.90354       67.50137       45.96771
C         22.32636       67.71908       44.43676
C         21.17748       67.70164       45.41345
O         20.90424       68.65860       46.32125
O         20.41179       66.75637       45.34592
H         24.14834       67.89848       42.72605
H         23.01175       69.76494       44.57210
H         22.80351       66.71591       44.47545
H         21.86345       67.83541       43.43252
N         24.39506       69.53758       46.77106
C         25.34042       69.48892       47.87266
C         24.59675       69.14973       49.15280
O         24.88990       68.12264       49.74940
C         26.09066       70.84862       47.94533
C         27.52515       70.76252       48.49338
C         28.48649       70.22222       47.41289
C         29.94142       70.18471       47.89248
N         30.83637       69.80559       46.79684
H         23.85649       70.40233       46.65430
H         26.07803       68.68262       47.67338
H         25.48737       71.56550       48.54094
H         26.17200       71.30007       46.93074
H         27.55433       70.16693       49.43078
H         27.86225       71.79707       48.72572
H         28.43246       70.90188       46.53209
H         28.19038       69.20502       47.08379
H         30.03394       69.45257       48.72424
H         30.24178       71.18826       48.26760
H         30.79935       70.52811       46.04023
H         31.81680       69.74902       47.15500
H         30.56215       68.87584       46.40429
N         23.58854       69.95013       49.61666
C         22.80458       69.62402       50.80910
C         21.87409       68.41874       50.61132
O         21.26001       67.99908       51.58232
C         22.01352       70.85961       51.30631
C         20.93605       71.36644       50.38204
O         20.69428       70.81476       49.32172
O         20.21878       72.44740       50.74183
H         23.39090       70.83046       49.11772
H         23.52434       69.38225       51.62341
H         22.73602       71.68633       51.48357
H         21.53713       70.61534       52.28034
N         21.72204       67.80586       49.39932
C         20.90800       66.61677       49.19063
C         19.42327       66.84886       49.38763
O         18.82163       66.17016       50.20700
H         22.23743       68.15729       48.58145
H         21.26964       65.80548       49.85960
H         21.04742       66.27040       48.14373
N         18.76177       67.76700       48.62854
C         17.32002       67.99947       48.67177
C         16.65909       67.77845       47.30308
O         15.50448       68.14993       47.14164
C         17.02967       69.40295       49.25082
C         17.54462       70.58311       48.47284
O         17.30774       71.82081       48.94520
O         18.16914       70.44757       47.43435
H         19.31060       68.33415       47.97748
H         16.82795       67.29401       49.37657
H         17.47042       69.45193       50.27022
H         15.92931       69.52061       49.35489
N         17.29609       67.10410       46.29856
C         16.68048       66.79071       45.01307
C         16.58955       67.95450       44.03990
O         16.09566       67.73716       42.94308
H         18.22216       66.69857       46.48145
H         15.67604       66.34413       45.18169
H         17.30325       66.02216       44.50541
N         17.06085       69.19697       44.34052
C         17.03838       70.32579       43.41294
C         18.44610       70.84957       43.17040
O         19.22844       70.97810       44.10121
C         16.11644       71.45952       43.93255
C         14.64390       71.12006       43.69544
O         16.30851       71.70307       45.30011
H         17.46873       69.36334       45.26812
H         16.63567       70.03286       42.41801
H         16.29987       72.39341       43.35077
H         17.24236       72.00470       45.40689
H         14.00382       71.95598       44.05026
H         14.45801       70.99268       42.60564
H         14.35605       70.18838       44.22365
N         18.78397       71.26374       41.91585
C         20.05972       71.86215       41.54701
C         19.82964       73.34029       41.29996
O         18.94541       73.70257       40.53746
C         20.65863       71.11881       40.31573
C         21.11497       69.70469       40.76556
C         21.83231       71.90704       39.69310
C         21.62142       68.81302       39.63185
H         18.06669       71.21394       41.17586
H         20.79488       71.78149       42.37185
H         19.87175       71.03306       39.53285
H         20.26046       69.17670       41.24019
H         21.92295       69.80243       41.52556
H         21.49162       72.90523       39.34508
H         22.65572       72.04439       40.42476
H         22.22226       71.39881       38.78894
H         21.90535       67.82344       40.04870
H         20.82379       68.66622       38.87418
H         22.52360       69.23625       39.14687
N         20.63944       74.24924       41.91476
C         20.49092       75.69321       41.79205
C         21.59955       76.26287       40.92950
O         22.47734       75.53575       40.49578
C         20.53473       76.34042       43.20505
C         19.39777       75.84425       44.09381
O         21.76317       76.04174       43.81666
H         21.42635       73.90195       42.48060
H         19.53083       75.94607       41.29224
H         20.43403       77.44473       43.10548
H         21.89202       76.68637       44.56067
H         19.47378       76.31883       45.09672
H         18.41709       76.10990       43.64935
H         19.46380       74.74434       44.21431
N         21.60177       77.59275       40.64385
C         22.66750       78.26753       39.90858
C         23.98732       78.12799       40.64910
O         24.97275       77.72254       40.04793
C         22.32011       79.77124       39.71767
C         21.15073       79.94195       38.73566
O         22.00638       80.36004       40.95660
H         20.81362       78.15521       40.99511
H         22.78431       77.81958       38.89604
H         23.20671       80.28387       39.27928
H         21.84212       81.32540       40.79634
H         20.23381       79.43535       39.10100
H         20.92657       81.02077       38.59608
H         21.42616       79.51937       37.74584
N         24.06832       78.45233       41.96622
C         25.30000       78.43539       42.74938
C         25.95308       77.06536       42.75483
O         27.13463       76.96549       42.45741
C         24.98028       78.93970       44.16964
C         26.23805       79.16691       45.01806
C         25.94649       79.93376       46.32314
C         25.35287       81.35043       46.12881
N         26.19786       82.20565       45.29065
H         23.19771       78.74640       42.43668
H         26.01030       79.16393       42.29911
H         24.27309       78.26062       44.69778
H         24.47701       79.91480       44.02064
H         26.98583       79.74135       44.43371
H         26.69480       78.18335       45.26275
H         26.90449       80.03315       46.87723
H         25.24768       79.34174       46.95321
H         25.24232       81.81974       47.13052
H         24.33291       81.29994       45.69234
H         26.22996       81.84649       44.30968
H         25.78806       83.16707       45.26147
H         27.16467       82.25992       45.68456
N         25.21721       75.95975       43.03260
C         25.74382       74.59664       43.01056
C         26.40094       74.28880       41.67880
O         27.54270       73.84930       41.67472
C         24.60723       73.60172       43.28037
C         24.06496       73.76216       44.71304
C         22.93468       72.83359       44.99110
O         22.52931       72.06450       44.13638
O         22.38266       72.79995       46.21115
H         24.21600       76.10375       43.21883
H         26.50799       74.46600       43.81019
H         24.98580       72.56322       43.16455
H         23.79726       73.75446       42.53353
H         23.71097       74.79041       44.90866
H         24.88075       73.53188       45.43199
N         25.75425       74.54029       40.50891
C         26.34293       74.32238       39.20408
H         27.35116       73.86155       39.26488
H         25.68480       73.65666       38.60918
H         26.43659       75.29797       38.68150
H         24.81249       74.94668       40.53973
Ca        21.49361       70.79408       46.55958
O         18.64929       73.80023       46.38404
H         17.81018       74.30161       46.22703
H         18.45572       73.22969       47.16669
O         20.74260       74.18707       48.29611
H         20.61233       75.09552       47.92430
H         21.68980       74.16543       48.58143

Ca 1.0



