%chk=holoCaM.loop3.water2.frame109.chk
%nprocshared=20
%mem=10GB
%nosave
#b3lyp/svp scf=(tight,noincore,xqc) Test 
#IOP(5/87=12) Density=Current Pop=(MK,readradii) iop(6/33=2) iop(6/42=6)

holoCaM.loop3.water2.frame109 

   0  1 
C          6.48547        6.22069      129.49535
C          6.33183        5.04814      128.57299
O          7.10462        4.10732      128.67848
H          7.48820        6.67435      129.35612
H          5.71504        6.99593      129.29729
H          6.37766        5.88020      130.54643
N          5.33455        5.02690      127.64751
C          5.11095        3.90222      126.74878
C          6.29395        3.74845      125.80555
O          6.62655        4.71560      125.13400
C          3.78336        4.11635      125.98038
C          3.25693        2.85556      125.36134
O          3.97455        1.72492      125.42636
O          2.11457        2.82354      124.94412
H          4.68738        5.83017      127.60852
H          4.98322        2.99250      127.37799
H          3.85609        4.93871      125.23677
H          3.01545        4.40195      126.73246
N          6.97542        2.56681      125.69832
C          8.16091        2.41298      124.85259
C          7.85542        1.73402      123.52839
O          8.74525        1.70866      122.68843
C          9.27785        1.66276      125.60281
C          9.76978        2.42874      126.83658
C         10.89085        1.65694      127.54336
C         11.44239        2.44934      128.73509
N         12.50257        1.70293      129.41206
H          6.63221        1.74309      126.21639
H          8.54625        3.41682      124.56622
H         10.14533        1.52755      124.91910
H          8.90879        0.65583      125.90011
H          8.93112        2.58281      127.54724
H         10.15389        3.42066      126.51127
H         11.71979        1.46747      126.82625
H         10.49522        0.67945      127.89750
H         10.62313        2.66065      129.45759
H         11.85166        3.41926      128.37339
H         12.12283        0.80507      129.79107
H         13.28453        1.50201      128.74686
H         12.87234        2.27565      130.20477
N          6.62431        1.22836      123.23274
C          6.25336        0.76982      121.89686
C          5.17142        1.66135      121.29337
O          4.85068        1.47405      120.12802
C          5.84347       -0.71407      121.92507
C          4.68366       -0.98889      122.83896
O          3.59898       -0.47142      122.63246
O          4.83757       -1.82014      123.88704
H          5.90018        1.21306      123.96066
H          7.12239        0.85166      121.20825
H          6.71683       -1.31032      122.26716
H          5.58319       -1.05143      120.89812
N          4.58295        2.66696      122.00738
C          3.62844        3.59923      121.44619
C          2.39596        2.93133      120.89452
O          2.09648        3.14652      119.72843
H          4.83340        2.82881      122.99049
H          4.12638        4.19268      120.64894
H          3.30954        4.30856      122.24282
N          1.59769        2.16110      121.68838
C          0.30229        1.64942      121.24474
C         -0.84249        2.33778      121.98262
O         -1.98808        2.10601      121.62323
C          0.22393        0.11194      121.36815
C          0.10874       -0.38656      122.79306
N         -0.96833       -1.11128      123.18004
O          0.98818       -0.14182      123.60254
H          1.89582        1.99124      122.65691
H          0.16743        1.88992      120.16805
H          1.11327       -0.34201      120.87948
H         -0.67118       -0.22937      120.80397
H         -1.72507       -1.33493      122.51709
H         -1.04969       -1.45269      124.14887
N         -0.60916        3.19626      123.02098
C         -1.64010        3.92998      123.72502
C         -1.79100        3.49133      125.16513
O         -2.53973        4.15218      125.87154
H          0.34653        3.37288      123.34608
H         -2.63257        3.82268      123.23782
H         -1.36384        5.00610      123.69224
N         -1.20527        2.35382      125.65741
C         -1.48353        1.85066      127.00213
C         -0.20528        1.55092      127.76901
O          0.86485        1.57953      127.18175
C         -2.34411        0.56475      126.91776
C         -3.63006        0.76455      126.14529
C         -3.61463        0.88421      124.74285
C         -4.86165        0.81891      126.81829
C         -4.80159        1.06905      124.03182
C         -6.04936        1.00976      126.10494
C         -6.02219        1.13665      124.70834
O         -7.15915        1.32093      124.00799
H         -0.62671        1.76723      125.03740
H         -2.05616        2.60675      127.58213
H         -2.59030        0.25150      127.95425
H         -1.77857       -0.27094      126.45127
H         -2.68627        0.82710      124.19248
H         -4.90327        0.72661      127.89627
H         -4.77053        1.15913      122.95300
H         -6.98940        1.05977      126.63912
H         -8.02454        1.37600      124.43745
N         -0.26620        1.18430      129.08486
C          0.88086        0.72549      129.86906
C          0.39104       -0.14209      131.02899
O         -0.27804        0.35033      131.92605
C          1.82711        1.87327      130.37924
C          1.06662        2.97500      131.17188
C          2.65634        2.49027      129.24110
C          1.97518        4.05011      131.77328
H         -1.20047        1.11888      129.51753
H          1.47882        0.04458      129.22838
H          2.56823        1.38874      131.05534
H          0.52735        2.53055      132.02702
H          0.31997        3.46614      130.51084
H          3.16716        1.69296      128.66042
H          2.02627        3.11047      128.57595
H          3.45695        3.14332      129.64329
H          2.72418        3.58665      132.45010
H          2.49346        4.63393      130.98636
H          1.35903        4.76319      132.36108
N          0.67069       -1.47681      131.05098
C          0.26897       -2.35477      132.14801
C          1.05959       -2.04206      133.41575
O          1.91147       -1.16500      133.39644
C          0.47354       -3.82762      131.73483
O          1.82550       -4.08480      131.47554
H          1.17053       -1.88832      130.24748
H         -0.81869       -2.22157      132.34114
H         -0.12610       -4.02287      130.81745
H          0.11207       -4.50656      132.53723
H          1.87978       -5.03885      131.20859
N          0.85024       -2.76448      134.55384
C          1.64937       -2.60966      135.76781
C          3.11610       -2.85402      135.47392
O          3.94653       -2.07070      135.91111
C          1.18034       -3.59381      136.84361
H          0.11593       -3.48812      134.54419
H          1.51997       -1.58346      136.17991
H          1.28728       -4.64317      136.49484
H          1.78262       -3.46003      137.76851
H          0.11500       -3.40237      137.09197
N          3.49840       -3.90742      134.69733
C          4.88142       -4.15634      134.30793
C          5.45977       -2.96743      133.56074
O          6.48569       -2.44672      133.97632
C          4.96321       -5.40580      133.41814
H          2.76503       -4.54035      134.34097
H          5.48909       -4.35063      135.21952
H          4.57226       -6.28925      133.96544
H          4.36492       -5.27743      132.49018
H          6.01797       -5.60730      133.13305
N          4.85091       -2.49083      132.43784
C          5.39316       -1.39657      131.63584
C          5.41185       -0.05254      132.36492
O          5.97213        0.88707      131.81663
C          4.59621       -1.24486      130.32354
C          4.67267       -2.50318      129.42995
C          3.98464       -2.29013      128.11070
O          4.06449       -3.13100      127.23025
O          3.34060       -1.13618      127.87845
H          3.98900       -2.95688      132.12566
H          6.44341       -1.65372      131.37154
H          5.02900       -0.39472      129.74831
H          3.53620       -1.00326      130.55725
H          4.22733       -3.38840      129.92724
H          5.74441       -2.71082      129.22189
N          4.82362        0.12668      133.58134
C          4.83823        1.37907      134.30979
H          5.39358        2.17773      133.77579
H          3.79488        1.72153      134.47271
H          5.31953        1.21920      135.29796
H          4.32693       -0.64901      134.02428
Ca         3.01576       -0.24108      125.86037
O          2.05127       -2.99767      124.11482
H          1.21786       -3.51609      124.24189
H          2.13669       -2.90359      123.13277
O          0.49076       -1.89942      126.84372
H         -0.08943       -2.51932      126.33466
H          0.03792       -1.79655      127.71811

Ca 1.0



