%chk=holoCaM-CaMKII.loop4.water2.frame111.chk
%nprocshared=20
%mem=10GB
%nosave
#b3lyp/svp scf=(tight,noincore,xqc) Test 
#IOP(5/87=12) Density=Current Pop=(MK,readradii) iop(6/33=2) iop(6/42=6)

holoCaM-CaMKII.loop4.water2.frame111 

   -3  1 
C         41.35521       35.56463       73.68122
C         42.40320       35.35465       74.72906
O         42.51589       36.16191       75.63982
H         40.76818       36.48444       73.88686
H         41.85564       35.67809       72.69514
H         40.67270       34.69123       73.64599
N         43.21827       34.26897       74.65766
C         44.34178       34.06534       75.56122
C         45.41197       35.08381       75.19401
O         45.89383       35.02469       74.07068
C         44.85914       32.62068       75.38823
C         46.05425       32.21816       76.20702
O         46.75387       31.31283       75.78742
O         46.33244       32.73064       77.42216
H         43.04135       33.57800       73.91137
H         43.97663       34.18743       76.59727
H         45.14441       32.49231       74.32069
H         44.04309       31.89181       75.58365
N         45.78597       36.08171       76.04921
C         46.71455       37.14872       75.65562
C         48.00428       37.16115       76.46978
O         48.87966       37.94043       76.11736
C         45.99403       38.53396       75.59862
C         45.43833       38.97816       76.97431
C         44.89190       38.48722       74.52279
C         44.74154       40.34159       76.95806
H         45.35569       36.11311       76.98224
H         47.07619       36.96258       74.62068
H         46.73584       39.29200       75.26147
H         46.28173       39.03381       77.69601
H         44.69749       38.24315       77.33774
H         45.31528       38.16377       73.54842
H         44.09646       37.77931       74.80907
H         44.43482       39.48274       74.35939
H         45.42481       41.12865       76.57693
H         43.82266       40.31325       76.33632
H         44.42635       40.60673       77.98937
N         48.24309       36.28536       77.49315
C         49.56449       36.12454       78.10633
C         50.14503       34.73456       77.82030
O         51.25587       34.46550       78.25575
C         49.54028       36.46343       79.61248
C         48.71640       35.56031       80.48942
O         48.68471       35.79680       81.81448
O         48.09571       34.61359       80.03361
H         47.49262       35.65220       77.80068
H         50.28422       36.84466       77.65787
H         49.17379       37.50611       79.73372
H         50.58568       36.43150       79.99235
N         49.48645       33.82718       77.03749
C         50.05010       32.55209       76.62526
C         50.19931       31.55534       77.75189
O         51.29517       31.06266       77.97445
H         48.57083       34.06468       76.63275
H         51.02003       32.72629       76.11202
H         49.36252       32.09042       75.88327
N         49.10489       31.16746       78.46011
C         49.08451       30.10534       79.46021
C         48.09527       29.00037       79.06679
O         47.81170       28.13954       79.88818
C         48.79213       30.69762       80.85954
C         47.47475       31.40325       81.05467
O         46.66241       31.51406       80.15383
O         47.19446       31.93273       82.25966
H         48.21758       31.63148       78.25086
H         50.08417       29.62559       79.54999
H         49.59871       31.42481       81.09531
H         48.85104       29.87659       81.60670
N         47.58415       28.92493       77.80051
C         46.67012       27.88923       77.34289
C         45.23428       28.07153       77.79184
O         44.41948       27.25180       77.38650
H         47.92116       29.57764       77.08352
H         47.05364       26.88757       77.63823
H         46.64223       27.91896       76.23212
N         44.83006       29.08846       78.61028
C         43.44991       29.24560       79.06747
C         42.93150       30.64629       78.78468
O         43.69954       31.48733       78.33706
C         43.37880       28.96753       80.59022
C         44.11999       27.68157       81.01584
C         43.62157       26.39969       80.39339
N         44.32263       25.25769       80.57757
O         42.60641       26.37980       79.71377
H         45.52758       29.74995       78.96890
H         42.79033       28.52772       78.53707
H         42.31931       28.93439       80.92507
H         43.87998       29.80413       81.12471
H         44.07622       27.57800       82.12097
H         45.18987       27.80166       80.74464
H         45.19231       25.26011       81.13120
H         44.01205       24.37528       80.14546
N         41.63213       30.97330       79.03360
C         41.09162       32.32438       78.89239
C         40.44633       32.72049       80.21220
O         39.59452       31.98355       80.69576
C         40.06149       32.40806       77.73120
C         39.59486       33.86501       77.52826
C         40.66550       31.90123       76.41218
H         40.98979       30.22660       79.34630
H         41.90359       33.04503       78.64091
H         39.17787       31.77502       77.96784
H         38.85724       33.92788       76.70027
H         39.10861       34.26207       78.44225
H         40.45805       34.52129       77.27669
H         41.55895       32.49837       76.13303
H         40.95883       30.83461       76.50002
H         39.91726       31.97751       75.59378
N         40.76300       33.89411       80.82554
C         40.15539       34.34823       82.07485
C         39.16296       35.46011       81.77830
O         39.08200       35.89506       80.64073
C         41.28962       34.77759       83.03695
C         40.83852       35.32105       84.37008
N         40.11902       34.56394       85.22950
O         41.13786       36.46325       84.68277
H         41.41806       34.53158       80.35061
H         39.56667       33.52470       82.53509
H         41.90280       35.55592       82.52856
H         41.94186       33.90018       83.22775
H         39.85511       33.59817       84.99026
H         39.81587       34.95365       86.13485
N         38.30796       35.91183       82.73731
C         37.27729       36.91097       82.48795
C         37.87313       38.24986       82.09376
O         37.43349       38.80590       81.09776
C         36.37644       37.08922       83.72742
C         35.24377       38.04697       83.43160
C         34.27816       37.73070       82.45768
C         35.15573       39.27254       84.10972
C         33.25075       38.63019       82.16216
C         34.12829       40.17202       83.81032
C         33.17359       39.85436       82.83289
O         32.18255       40.71618       82.52896
H         38.34453       35.48363       83.67196
H         36.62920       36.54076       81.66206
H         36.99788       37.45740       84.57327
H         35.94152       36.11047       84.02729
H         34.32085       36.79025       81.92246
H         35.88965       39.53848       84.85988
H         32.51712       38.37677       81.40672
H         34.07901       41.11742       84.33483
H         32.09894       41.57710       82.96292
N         38.87083       38.83005       82.82695
C         39.44492       40.13272       82.48563
C         39.87971       40.16732       81.03384
O         39.57708       41.12026       80.32974
C         40.61769       40.52689       83.42800
C         41.91693       39.71245       83.25651
C         42.99118       40.19115       84.19179
O         43.53932       39.34366       85.08301
O         43.39265       41.34299       84.13006
H         39.24428       38.31785       83.64034
H         38.65717       40.90422       82.63402
H         40.26982       40.45497       84.48196
H         40.86672       41.59208       83.22560
H         42.31276       39.83524       82.22730
H         41.72068       38.63735       83.43822
N         40.56051       39.11178       80.51911
C         41.03612       39.03526       79.14772
C         39.87173       39.08388       78.17087
O         39.89854       39.90155       77.26231
C         41.90064       37.77089       78.95678
C         43.10579       37.78607       79.92874
C         44.05059       36.67148       79.64808
O         45.21734       36.90609       79.37954
O         43.62445       35.40350       79.68147
H         40.73840       38.31533       81.14764
H         41.70837       39.89895       78.94407
H         42.27687       37.76769       77.91057
H         41.29803       36.84786       79.11340
H         42.77570       37.67559       80.98020
H         43.65201       38.74903       79.83060
N         38.79012       38.27240       78.33496
C         37.61977       38.29209       77.48112
H         36.73556       38.60218       78.07929
H         37.72893       38.99183       76.62728
H         37.43685       37.27165       77.08455
H         38.76846       37.63222       79.13246
Ca        45.01098       33.92824       78.76886
O         44.18912       32.74614       82.17764
H         44.33924       33.29450       82.98812
H         44.41637       31.82601       82.46224
O         45.50800       35.68008       82.16926
H         45.14289       35.81905       83.07848
H         46.21620       34.99885       82.28529

Ca 1.0



