%chk=holoCaM.loop4.water3.frame290.chk
%nprocshared=20
%mem=10GB
%nosave
#b3lyp/svp scf=(tight,noincore,xqc) Test 
#IOP(5/87=12) Density=Current Pop=(MK,readradii) iop(6/33=2) iop(6/42=6)

holoCaM.loop4.water3.frame290 

   -3  1 
C         30.64905       48.68892       87.45846
C         31.78904       49.66912       87.43073
O         31.57381       50.82164       87.76937
H         29.84279       49.00273       86.76652
H         30.98212       47.66322       87.19275
H         30.24109       48.65000       88.49343
N         33.04971       49.25725       87.11293
C         34.24143       50.05521       87.38754
C         35.31411       49.83951       86.32280
O         35.70412       48.70295       86.09400
C         34.71242       49.59681       88.77993
C         36.03106       50.10597       89.27185
O         36.90294       49.29364       89.53155
O         36.29991       51.40106       89.49977
H         33.18591       48.25516       86.90522
H         34.00197       51.13783       87.44212
H         34.78783       48.48664       88.76089
H         33.93384       49.86435       89.52603
N         35.86727       50.90813       85.66874
C         36.95234       50.80453       84.68663
C         38.24329       51.48444       85.17437
O         39.24451       51.37195       84.48028
C         36.51358       51.39939       83.30254
C         36.33011       52.94476       83.35919
C         35.24437       50.68962       82.79603
C         35.96318       53.59863       82.02503
H         35.51471       51.84290       85.89757
H         37.20239       49.73189       84.53080
H         37.32606       51.19080       82.57059
H         37.28235       53.41092       83.69093
H         35.54730       53.21114       84.08461
H         35.41254       49.59377       82.74691
H         34.38267       50.88921       83.46670
H         34.97870       51.02412       81.77252
H         35.91547       54.70104       82.16050
H         36.72779       53.36988       81.25376
H         34.96431       53.26851       81.67457
N         38.28304       52.24883       86.31137
C         39.45732       53.01002       86.75597
C         39.84893       52.74644       88.21888
O         40.81181       53.34617       88.67708
C         39.23908       54.52430       86.48964
C         38.04040       55.17971       87.13841
O         37.14630       54.47226       87.84331
O         37.84180       56.36910       86.96086
H         37.42128       52.35830       86.85375
H         40.34472       52.72992       86.14486
H         39.13031       54.66484       85.39145
H         40.15331       55.07260       86.80461
N         39.19177       51.84013       88.99708
C         39.57763       51.48358       90.36070
C         39.41029       52.54917       91.44101
O         39.76491       52.24469       92.57169
H         38.44099       51.29078       88.57093
H         40.63996       51.15631       90.34806
H         38.96768       50.61239       90.68189
N         38.92139       53.80298       91.20766
C         38.90928       54.84576       92.24367
C         37.86857       54.67206       93.35986
O         37.82110       55.54197       94.22059
C         38.79584       56.25038       91.60853
C         37.49163       56.55314       90.92744
O         36.50151       55.64508       90.87211
O         37.32713       57.65052       90.42100
H         38.65972       54.05974       90.24618
H         39.91299       54.84967       92.72706
H         39.61877       56.37060       90.87106
H         38.94933       57.01223       92.40516
N         37.03554       53.59418       93.45885
C         36.11782       53.43753       94.58222
C         34.82600       54.22773       94.45184
O         34.14880       54.36866       95.46082
H         37.12489       52.81595       92.79464
H         36.64554       53.71480       95.52379
H         35.83620       52.36973       94.70277
N         34.35669       54.67938       93.24739
C         33.08060       55.38635       93.11345
C         32.60196       55.46379       91.65746
O         33.33574       55.91046       90.78946
C         33.14660       56.79520       93.74655
C         34.20982       57.70831       93.10972
C         34.22190       59.10036       93.68642
N         35.09256       60.01240       93.19828
O         33.44695       59.41999       94.57686
H         34.89288       54.46710       92.39715
H         32.30595       54.81845       93.67646
H         33.36125       56.70521       94.83311
H         32.14332       57.26598       93.64256
H         34.01301       57.82334       92.02737
H         35.21422       57.25323       93.24792
H         35.74665       59.75862       92.44285
H         35.10891       60.97354       93.56892
N         31.33899       55.05503       91.33935
C         30.74758       55.12565       89.99866
C         30.64206       56.56244       89.49690
O         30.05938       57.39569       90.17674
C         29.33822       54.45016       90.00223
C         28.56322       54.68060       88.69051
C         29.47712       52.93343       90.22320
H         30.75490       54.68247       92.10344
H         31.37171       54.55360       89.28498
H         28.72564       54.88465       90.82386
H         29.13375       54.30021       87.81765
H         27.57864       54.16793       88.73241
H         28.35281       55.76074       88.54276
H         28.47763       52.45135       90.25392
H         30.05545       52.47883       89.38939
H         29.99406       52.70480       91.17681
N         31.09606       56.87268       88.24215
C         30.88949       58.16329       87.58201
C         29.96984       57.98164       86.37041
O         29.43069       56.89863       86.19342
C         32.24036       58.83721       87.21155
C         32.84614       58.44160       85.87748
N         33.23055       57.17846       85.60671
O         32.99022       59.30093       85.01966
H         31.53921       56.12434       87.69620
H         30.39164       58.86215       88.28910
H         32.96641       58.70668       88.04156
H         32.04518       59.93058       87.14126
H         33.13574       56.44105       86.30709
H         33.63093       56.94218       84.68646
N         29.76174       58.99382       85.47964
C         28.90007       58.87244       84.30312
C         29.32569       57.74612       83.36902
O         28.48028       56.94402       83.00048
C         28.90633       60.18574       83.48801
C         27.95944       60.09076       82.31099
C         26.57420       59.99911       82.52593
C         28.45244       60.06539       80.99469
C         25.69657       59.88544       81.44469
C         27.57250       59.94269       79.91428
C         26.19034       59.85333       80.13683
O         25.32976       59.73352       79.10582
H         30.23784       59.89302       85.64364
H         27.86049       58.68100       84.65101
H         29.94419       60.37474       83.13397
H         28.60984       61.04750       84.12285
H         26.17382       60.01650       83.53170
H         29.51710       60.12188       80.80377
H         24.63120       59.81749       81.62516
H         27.96580       59.91274       78.90583
H         25.62897       59.70106       78.18604
N         30.59710       57.67417       82.87935
C         31.00480       56.71116       81.85303
C         30.92600       55.24987       82.32141
O         31.14154       54.36487       81.50619
C         32.42111       57.08827       81.34793
C         32.80928       56.44079       80.00743
C         34.14372       56.94851       79.53589
O         34.31277       58.14073       79.33090
O         35.15636       56.08784       79.31999
H         31.27472       58.38329       83.19570
H         30.30432       56.84614       80.99840
H         33.17760       56.86233       82.13171
H         32.42522       58.18696       81.16925
H         32.04797       56.70159       79.23945
H         32.86021       55.33825       80.09714
N         30.59502       54.91888       83.60551
C         30.48539       53.54909       84.10263
C         29.05178       53.19573       84.48317
O         28.78776       52.01839       84.68556
C         31.36913       53.41682       85.35220
C         32.85270       53.66106       85.04800
C         33.65268       53.89582       86.29845
O         34.83597       54.17329       86.21538
O         33.06405       53.90467       87.50613
H         30.42849       55.66536       84.28682
H         30.80028       52.82418       83.31919
H         31.25581       52.41900       85.82386
H         31.00728       54.18388       86.07409
H         32.97137       54.57163       84.42769
H         33.25135       52.79402       84.48140
N         28.08163       54.14492       84.62599
C         26.70552       53.85227       84.96442
H         26.04430       54.27485       84.17845
H         26.50826       52.76367       85.04188
H         26.45702       54.33232       85.93431
H         28.31008       55.13554       84.51959
Ca        35.55806       53.44233       89.03893
O         32.76267       52.58604       90.10902
H         32.28421       51.84719       90.55812
H         33.07452       52.18974       89.26200
O         34.86039       52.00669       91.79147
H         34.08531       51.85851       92.38743
H         35.45957       51.23923       91.96271
O         34.87107       56.73611       88.51276
H         35.13105       57.57136       88.97562
H         35.29771       56.80375       87.62324

Ca 1.0



