%chk=holoCaM-CaMKII.loop2.water2.frame301.chk
%nprocshared=20
%mem=10GB
%nosave
#b3lyp/svp scf=(tight,noincore,xqc) Test 
#IOP(5/87=12) Density=Current Pop=(MK,readradii) iop(6/33=2) iop(6/42=6)

holoCaM-CaMKII.loop2.water2.frame301 

   -2  1 
C         62.98780       21.02324       57.23403
C         64.33625       21.53665       56.80028
O         64.55564       22.73405       56.83487
H         62.18710       21.45009       56.59730
H         62.93336       19.91438       57.17086
H         62.80539       21.30819       58.29263
N         65.29922       20.66496       56.40413
C         66.68300       21.01860       56.08541
C         66.84252       21.94399       54.87927
O         66.26910       21.67430       53.83366
C         67.45739       19.71460       55.83399
C         68.89465       19.96989       55.53411
O         69.65671       20.65042       56.41185
O         69.37012       19.57232       54.48348
H         65.04455       19.66451       56.39251
H         67.14028       21.50292       56.97570
H         66.99495       19.16014       54.98773
H         67.40324       19.07838       56.74239
N         67.70873       23.00575       54.95020
C         68.01673       23.90614       53.84140
C         69.51080       23.96034       53.47113
O         69.80145       24.52020       52.42283
C         67.55246       25.32003       54.20959
H         68.18224       23.17763       55.83954
H         67.46049       23.58003       52.93627
H         67.73234       26.02817       53.37261
H         66.46673       25.31836       54.44219
H         68.10348       25.68394       55.10558
N         70.51273       23.49572       54.28516
C         71.94527       23.63204       53.96933
C         72.73639       22.32051       54.08638
O         73.93225       22.33658       53.82747
C         72.56496       24.75139       54.83431
C         72.30703       24.61333       56.30471
O         71.64789       25.58984       56.95619
O         72.69685       23.63784       56.91823
H         70.26926       23.10951       55.20638
H         72.08248       23.96359       52.91645
H         72.12177       25.71808       54.51212
H         73.66017       24.81111       54.65149
N         72.13812       21.14398       54.41510
C         72.80594       19.84846       54.43494
C         73.81053       19.62374       55.55056
O         74.37067       18.53615       55.57738
H         71.13210       21.14666       54.56773
H         73.30034       19.68257       53.45288
H         72.03339       19.05857       54.55535
N         74.11101       20.55939       56.49846
C         75.12625       20.31449       57.52345
C         74.76102       19.19379       58.49607
O         75.66031       18.70194       59.16374
C         75.51597       21.60617       58.27716
C         74.41961       22.26930       59.07473
N         74.70453       23.38201       59.78737
O         73.28318       21.82299       59.08196
H         73.65870       21.47728       56.45429
H         76.04446       19.99002       56.98373
H         75.89010       22.34701       57.53802
H         76.34808       21.36800       58.97447
H         75.65435       23.77919       59.78635
H         73.98286       23.84741       60.34910
N         73.47857       18.75351       58.65293
C         73.11619       17.62532       59.50251
C         72.35609       18.01638       60.75448
O         71.92229       17.11372       61.45625
H         72.71890       19.22754       58.14582
H         74.01275       17.06175       59.83917
H         72.50192       16.92758       58.89340
N         72.20672       19.31726       61.14141
C         71.55816       19.71786       62.38728
C         70.43014       20.69800       62.14498
O         70.46756       21.45763       61.18593
C         72.58374       20.37662       63.34163
C         73.63361       19.37269       63.81681
O         73.23612       21.45115       62.71056
H         72.61619       20.05867       60.56425
H         71.12779       18.83562       62.91164
H         72.06366       20.73571       64.26184
H         72.62348       22.23107       62.74702
H         74.33773       19.87247       64.51574
H         73.14188       18.53534       64.35723
H         74.21073       18.96472       62.96091
N         69.41397       20.77357       63.04929
C         68.36467       21.78029       62.98564
C         68.96836       23.13759       63.30624
O         69.53879       23.30563       64.37555
C         67.18915       21.43623       63.95819
C         66.53680       20.09141       63.52495
C         66.13832       22.56950       63.96587
C         65.39011       19.62313       64.42334
H         69.40675       20.10140       63.83200
H         67.92347       21.79177       61.96662
H         67.58836       21.33557       64.99242
H         67.30168       19.28754       63.53789
H         66.15238       20.17824       62.48481
H         66.59004       23.52476       64.30073
H         65.70312       22.71226       62.95368
H         65.32344       22.36088       64.68661
H         65.02549       18.63728       64.06433
H         65.73758       19.51493       65.47186
H         64.53025       20.32175       64.38407
N         68.80239       24.17107       62.43819
C         69.19428       25.54778       62.71359
C         67.93960       26.34850       62.99603
O         66.85929       25.78483       62.93274
C         70.01609       26.08712       61.52988
C         71.37278       25.42698       61.50961
O         71.73772       24.58606       60.52364
O         72.15652       25.64250       62.41979
H         68.26958       24.00185       61.57508
H         69.79529       25.61700       63.64708
H         70.17491       27.18312       61.61385
H         69.45544       25.90106       60.58652
N         67.99864       27.63576       63.43658
C         66.81117       28.31151       63.95084
C         65.72632       28.50488       62.89324
O         64.60001       28.12369       63.17617
C         67.15232       29.63403       64.67390
C         65.98763       30.09498       65.52481
C         65.56644       29.31283       66.61934
C         65.31515       31.29603       65.24686
C         64.49184       29.71987       67.41167
C         64.23630       31.69890       66.04356
C         63.82529       30.91146       67.12350
H         68.91878       28.09523       63.51906
H         66.40479       27.64176       64.74090
H         67.44813       30.41353       63.94825
H         68.01315       29.47787       65.35979
H         66.07209       28.38718       66.86525
H         65.61849       31.91524       64.41255
H         64.17766       29.10985       68.24939
H         63.71665       32.62200       65.82417
H         62.99164       31.22386       67.73895
N         65.96030       29.05963       61.65804
C         64.93922       29.21396       60.62173
C         64.12245       27.95416       60.40291
O         62.90219       28.01094       60.35441
C         65.76205       29.51310       59.35590
C         66.92690       30.28741       59.91807
C         67.26018       29.47867       61.16657
H         64.28601       30.07699       60.87925
H         66.19734       28.57390       58.94206
H         65.19425       30.01486       58.54375
H         67.78209       30.43538       59.22442
H         66.54219       31.28314       60.23535
H         67.85508       28.57054       60.92192
H         67.82503       30.13154       61.85499
N         64.77117       26.76838       60.28545
C         64.13532       25.47764       60.04743
C         63.18646       25.14146       61.18204
O         62.02692       24.85566       60.92118
C         65.22513       24.39476       59.90822
C         66.16026       24.69960       58.71615
C         67.37097       23.83261       58.69522
O         68.38321       24.19338       57.89906
O         67.53447       22.93822       59.50805
H         65.79431       26.79890       60.39997
H         63.57085       25.50283       59.08837
H         64.76991       23.39021       59.76584
H         65.82184       24.37617       60.84737
H         66.57138       25.72229       58.79533
H         65.62518       24.66214       57.74999
N         63.61279       25.19406       62.47409
C         62.77557       24.92187       63.62192
H         61.75338       24.60332       63.33343
H         63.24204       24.12011       64.23159
H         62.70059       25.84070       64.24211
H         64.57773       25.47420       62.66529
Ca        70.35144       23.99624       58.88542
O         70.21759       19.28745       58.71296
H         69.83876       18.82350       59.49958
H         70.28261       18.58532       58.01754
O         67.47833       20.07097       59.26170
H         67.53717       20.30554       60.22015
H         66.50874       19.98769       59.08393

Ca 1.0



