%chk=holoCaM.loop2.water2.frame495.chk
%nprocshared=20
%mem=10GB
%nosave
#b3lyp/svp scf=(tight,noincore,xqc) Test 
#IOP(5/87=12) Density=Current Pop=(MK,readradii) iop(6/33=2) iop(6/42=6)

holoCaM.loop2.water2.frame495 

   -2  1 
C        -19.47944       88.33956       16.57567
C        -20.30021       89.01988       17.63078
O        -20.25298       88.59506       18.77669
H        -18.40809       88.37377       16.86808
H        -19.79660       87.28119       16.47782
H        -19.58798       88.84003       15.59056
N        -21.06240       90.10718       17.32447
C        -21.79951       90.84771       18.33721
C        -22.89626       89.98710       18.97007
O        -23.78284       89.53585       18.25949
C        -22.42466       92.12714       17.73014
C        -22.97014       93.03345       18.79921
O        -22.71922       92.77562       20.08921
O        -23.59188       94.03552       18.50687
H        -21.06719       90.45093       16.35132
H        -21.05671       91.16892       19.09903
H        -23.23354       91.83990       17.02315
H        -21.65995       92.70559       17.16652
N        -22.88462       89.71683       20.30806
C        -23.90069       88.91703       20.99267
C        -25.24333       89.63200       21.18938
O        -26.17620       88.96816       21.61996
C        -23.37663       88.46690       22.36050
H        -22.07553       90.03800       20.84565
H        -24.06620       87.99645       20.38964
H        -22.42610       87.90624       22.23219
H        -23.19201       89.34423       23.01585
H        -24.10910       87.79424       22.85559
N        -25.43647       90.95010       20.88259
C        -26.74836       91.60328       20.91011
C        -27.26886       91.77534       19.48169
O        -28.41149       92.17685       19.31448
C        -26.67351       92.98601       21.59775
C        -26.25897       92.94599       23.04776
O        -25.09464       93.50429       23.43749
O        -26.98962       92.43470       23.88026
H        -24.64922       91.49142       20.51691
H        -27.48663       90.96624       21.44363
H        -27.66346       93.48723       21.55640
H        -25.97124       93.61785       21.01672
N        -26.48705       91.47565       18.40344
C        -26.90164       91.53904       17.01783
C        -27.31142       92.92111       16.58494
O        -28.34791       93.04246       15.94757
H        -25.52190       91.16850       18.54259
H        -27.71604       90.80608       16.82666
H        -26.03174       91.24123       16.39175
N        -26.55359       94.01322       16.89910
C        -26.88549       95.36419       16.45396
C        -25.70728       96.10465       15.81242
O        -25.95596       97.18050       15.28540
C        -27.44053       96.19605       17.62323
C        -28.67924       95.57704       18.22462
N        -28.72396       95.26291       19.53923
O        -29.65754       95.37184       17.52083
H        -25.75368       93.87908       17.52593
H        -27.68186       95.30878       15.67773
H        -27.72150       97.20445       17.24957
H        -26.65170       96.31738       18.39662
H        -27.91568       95.44340       20.15122
H        -29.57329       94.84683       19.94951
N        -24.42172       95.62655       15.79710
C        -23.33853       96.29475       15.08181
C        -22.12894       96.71375       15.90970
O        -21.18813       97.17646       15.27976
H        -24.19678       94.72681       16.23554
H        -23.69882       97.20302       14.55296
H        -22.98005       95.58721       14.30412
N        -22.04786       96.62237       17.27524
C        -20.84935       97.04350       18.02484
C        -20.25060       95.87108       18.80303
O        -20.91024       94.85973       18.95571
C        -21.21241       98.25195       18.92809
C        -20.01414       98.84593       19.68289
O        -21.76776       99.25734       18.11896
H        -22.85905       96.27444       17.80402
H        -20.06398       97.37684       17.31286
H        -21.97448       97.91013       19.66646
H        -22.30409       99.84519       18.71360
H        -19.59217       98.12430       20.40901
H        -19.22642       99.16579       18.96680
H        -20.33815       99.73284       20.26692
N        -18.96594       95.91285       19.26531
C        -18.30829       94.80607       19.96029
C        -17.85140       95.25658       21.34541
O        -17.07040       96.19186       21.45198
C        -17.13133       94.27105       19.08041
C        -17.71745       93.54988       17.83374
C        -16.20759       93.31830       19.86583
C        -16.66866       93.09219       16.81761
H        -18.39704       96.75044       19.07258
H        -19.00514       93.95566       20.10451
H        -16.50942       95.13566       18.75860
H        -18.40653       94.23613       17.29868
H        -18.30469       92.66149       18.16102
H        -15.35385       92.97824       19.24876
H        -15.74683       93.84880       20.72170
H        -16.76698       92.43411       20.23171
H        -17.17969       92.60961       15.95773
H        -16.09164       93.96436       16.44596
H        -15.97419       92.34191       17.24534
N        -18.26262       94.56531       22.45159
C        -17.72526       94.75967       23.79566
C        -16.50763       93.86580       23.97586
O        -16.19166       93.12145       23.06501
C        -18.79239       94.37179       24.84333
C        -20.04111       95.19438       24.71831
O        -19.99224       96.52751       24.89820
O        -21.10940       94.65582       24.47328
H        -18.85086       93.73797       22.30997
H        -17.41966       95.81970       23.93602
H        -18.39321       94.51013       25.86968
H        -19.05049       93.29472       24.71522
N        -15.75368       93.88804       25.11100
C        -14.58096       93.03034       25.27741
C        -14.95106       91.54468       25.32446
O        -14.35672       90.80623       24.55308
C        -13.72796       93.45130       26.49344
C        -12.48173       92.59948       26.62796
C        -11.51857       92.55851       25.60055
C        -12.27391       91.83211       27.78718
C        -10.37698       91.76187       25.73241
C        -11.12893       91.03970       27.91528
C        -10.18198       91.00367       26.88890
H        -15.99708       94.55856       25.85604
H        -13.92051       93.19437       24.39615
H        -14.31890       93.40255       27.42349
H        -13.41891       94.51113       26.36581
H        -11.64683       93.13893       24.69617
H        -12.99831       91.84415       28.59169
H         -9.64260       91.73256       24.93741
H        -10.97638       90.45211       28.81108
H         -9.29698       90.38868       26.98989
N        -15.90091       91.01255       26.16637
C        -16.28539       89.60006       26.17936
C        -16.51564       89.04191       24.78995
O        -16.00691       87.98071       24.45801
C        -17.61504       89.60137       26.95413
C        -17.38968       90.71017       27.94855
C        -16.73201       91.77546       27.07858
H        -15.51263       89.01484       26.72563
H        -18.44886       89.94752       26.29985
H        -17.90208       88.61799       27.38356
H        -18.29445       91.05656       28.49253
H        -16.64089       90.34553       28.68781
H        -17.48285       92.33541       26.48337
H        -16.18041       92.45723       27.74605
N        -17.26747       89.76004       23.91881
C        -17.58266       89.36470       22.55366
C        -16.30474       89.21054       21.74425
O        -16.09201       88.15475       21.16579
C        -18.52601       90.42072       21.93465
C        -19.85365       90.50760       22.72898
C        -20.75608       91.60761       22.26972
O        -20.45679       92.31341       21.32379
O        -21.92278       91.81116       22.90917
H        -17.61361       90.66978       24.25658
H        -18.12865       88.39451       22.55695
H        -18.75083       90.16143       20.87640
H        -18.02138       91.40972       21.95455
H        -19.67251       90.71419       23.80010
H        -20.38984       89.53805       22.65624
N        -15.38845       90.21640       21.70320
C        -14.12268       90.14570       21.00419
H        -13.29560       90.24540       21.74002
H        -13.99408       89.19113       20.45489
H        -14.05393       90.98651       20.28322
H        -15.57728       91.07339       22.22568
Ca       -23.63701       93.89617       21.78320
O        -24.75882       96.66266       22.31444
H        -25.16563       96.25804       21.50736
H        -25.46993       97.23993       22.68923
O        -21.73993       96.93832       22.21402
H        -21.87597       97.91792       22.26507
H        -20.76119       96.81931       22.30027

Ca 1.0



