%chk=holoCaM-CaMKII.loop3.water3.frame65.chk
%nprocshared=20
%mem=10GB
%nosave
#b3lyp/svp scf=(tight,noincore,xqc) Test 
#IOP(5/87=12) Density=Current Pop=(MK,readradii) iop(6/33=2) iop(6/42=6)

holoCaM-CaMKII.loop3.water3.frame65 

   0  1 
C         90.90965       58.22527       78.55723
C         92.22947       57.52478       78.69721
O         92.44561       56.83797       79.67937
H         90.24348       57.99552       79.41574
H         91.07074       59.32338       78.51304
H         90.41283       57.89425       77.62055
N         93.17918       57.67940       77.74132
C         94.49502       57.05076       77.78426
C         95.45273       58.01082       78.46861
O         96.00951       58.89630       77.83713
C         94.83852       56.59995       76.35012
C         96.25158       56.22004       76.01230
O         96.77559       56.79204       75.07177
O         96.96376       55.25899       76.62398
H         92.96938       58.32206       76.96116
H         94.46847       56.12669       78.40373
H         94.59005       57.43535       75.66011
H         94.16559       55.75588       76.08840
N         95.56468       57.94344       79.82796
C         96.33631       58.85405       80.66479
C         97.83001       58.73102       80.41821
O         98.46718       59.75304       80.20309
C         96.03093       58.59559       82.16099
C         94.57308       58.90070       82.58289
C         94.19039       60.38644       82.39365
C         92.91663       60.78330       83.16283
N         91.70234       60.15191       82.64350
H         95.01704       57.21964       80.31025
H         96.03799       59.90090       80.45180
H         96.69099       59.24030       82.78241
H         96.26399       57.53709       82.41562
H         94.51085       58.66282       83.66730
H         93.85436       58.24190       82.05169
H         94.08329       60.63972       81.31655
H         95.00981       61.00564       82.81800
H         92.79199       61.88859       83.10809
H         93.05448       60.51725       84.23389
H         91.44393       60.58066       81.72535
H         91.81948       59.12096       82.53467
H         90.92409       60.32261       83.32157
N         98.46691       57.52398       80.46590
C         99.91104       57.39253       80.25173
C        100.30446       57.41704       78.78083
O        101.49736       57.37009       78.50768
C        100.52550       56.16581       80.97651
C        100.00943       54.81042       80.57321
O        100.58478       53.80917       80.96635
O         98.89222       54.68336       79.84058
H         97.89638       56.68658       80.64238
H        100.41338       58.26816       80.72182
H        100.39086       56.26724       82.07426
H        101.62145       56.18625       80.78171
N         99.39040       57.53150       77.77595
C         99.79792       57.63705       76.38849
C        100.41520       56.36996       75.84247
O        101.12526       56.47526       74.85187
H         98.38707       57.60890       77.98660
H        100.51687       58.48114       76.29017
H         98.93131       57.89505       75.74774
N        100.12762       55.12988       76.35180
C        100.63188       53.91422       75.71672
C         99.73338       53.43244       74.57541
O        100.00508       52.37531       74.02300
C        100.99209       52.79944       76.73218
C         99.87122       51.92677       77.24403
N        100.17705       50.74539       77.83349
O         98.70212       52.23505       77.07963
H         99.46326       55.04161       77.13380
H        101.61559       54.15454       75.25789
H        101.58771       53.20482       77.58078
H        101.65549       52.10420       76.17482
H        101.16035       50.45262       77.94245
H         99.43633       50.09826       78.14085
N         98.66814       54.17120       74.14371
C         97.85529       53.82242       72.99263
C         96.59180       53.07383       73.34973
O         95.84156       52.77677       72.43070
H         98.48570       55.08813       74.56173
H         98.44769       53.22940       72.26177
H         97.56379       54.76161       72.47405
N         96.29590       52.69384       74.62946
C         95.12917       51.87984       74.95708
C         94.28520       52.47359       76.06976
O         94.75828       53.29156       76.84424
C         95.61559       50.47837       75.37148
C         96.26803       49.77096       74.20751
C         95.49141       49.40429       73.09519
C         97.64082       49.46968       74.21452
C         96.07285       48.74612       72.01028
C         98.22280       48.81407       73.12265
C         97.43808       48.44801       72.01790
O         97.98121       47.81001       70.96150
H         96.95267       52.91424       75.38876
H         94.46143       51.78630       74.07381
H         94.77200       49.84845       75.72741
H         96.33041       50.59366       76.21774
H         94.43112       49.62260       73.07132
H         98.26215       49.74684       75.05731
H         95.45885       48.46633       71.16345
H         99.28203       48.58998       73.13572
H         98.91988       47.57827       70.92518
N         92.99456       52.05258       76.19990
C         92.07782       52.45798       77.25805
C         91.65172       51.18223       77.97154
O         91.14992       50.27358       77.32349
C         90.84354       53.19834       76.65905
C         91.27408       54.45260       75.85275
C         89.85593       53.60561       77.77917
C         90.15515       54.98493       74.95164
H         92.63281       51.38459       75.50089
H         92.57540       53.15358       77.97216
H         90.33955       52.49187       75.96343
H         92.10948       54.19831       75.16863
H         91.62999       55.25027       76.54268
H         90.34104       54.31020       78.49104
H         88.94907       54.09376       77.37112
H         89.50901       52.72055       78.34918
H         89.86492       54.19989       74.21926
H         89.25839       55.29170       75.52405
H         90.51997       55.86709       74.38501
N         91.80392       51.05879       79.31388
C         91.43434       49.87279       80.07388
C         90.08917       50.07873       80.73353
O         89.51156       51.14333       80.60125
C         92.52882       49.57722       81.12213
O         92.64999       50.65533       82.01148
H         92.13602       51.87228       79.82942
H         91.33602       48.99621       79.39851
H         93.49350       49.41509       80.59275
H         92.27938       48.66217       81.70025
H         93.52422       50.56128       82.47073
N         89.51351       49.08011       81.45300
C         88.25544       49.24681       82.17179
C         88.41189       50.31492       83.24506
O         87.58527       51.21232       83.32521
C         87.83027       47.91117       82.79089
H         90.00109       48.17247       81.50641
H         87.44708       49.53702       81.46245
H         87.70673       47.15511       81.98385
H         88.58881       47.54030       83.51133
H         86.85369       48.02048       83.30862
N         89.50078       50.29879       84.06641
C         89.77623       51.29443       85.10164
C         89.81300       52.70928       84.54270
O         89.09887       53.56441       85.04658
C         91.12055       50.97624       85.77098
H         90.18862       49.54171       83.92701
H         88.98652       51.23713       85.88288
H         91.08832       49.96026       86.21910
H         91.94857       51.00453       85.02901
H         91.33705       51.70937       86.57619
N         90.61309       53.01564       83.48516
C         90.69825       54.33975       82.86817
C         89.31987       54.84426       82.47269
O         88.92989       55.90652       82.93859
C         91.64395       54.27600       81.64835
C         93.12154       54.22215       82.09377
C         94.09091       53.97975       80.96880
O         94.88010       54.84640       80.64318
O         94.18133       52.77138       80.39062
H         91.16326       52.24889       83.07820
H         91.11298       55.07434       83.59488
H         91.51071       55.17479       81.02542
H         91.34710       53.41260       81.03013
H         93.29082       53.43164       82.85284
H         93.35228       55.20583       82.56089
N         88.51132       54.12858       81.65092
C         87.17225       54.55920       81.31642
H         86.56904       54.66408       82.24423
H         87.20533       55.53109       80.78147
H         86.68423       53.80359       80.66470
H         88.84278       53.23905       81.27345
Ca        97.04395       54.30193       78.62851
O         97.07653       53.63008       82.09505
H         97.40101       53.08881       82.85695
H         96.73674       54.46332       82.50819
O         96.07725       50.69954       79.21841
H         95.13349       50.49208       79.00547
H         96.25471       50.20507       80.05791
O         98.63406       51.22655       80.48480
H         99.54990       50.98232       80.76747
H         98.67598       52.19759       80.30857

Ca 1.0



