%chk=holoCaM.loop3.water2.frame339.chk
%nprocshared=20
%mem=10GB
%nosave
#b3lyp/svp scf=(tight,noincore,xqc) Test 
#IOP(5/87=12) Density=Current Pop=(MK,readradii) iop(6/33=2) iop(6/42=6)

holoCaM.loop3.water2.frame339 

   0  1 
C         11.81093       11.09227        4.54319
C         12.93879       10.11184        4.56164
O         13.16781        9.44609        3.56092
H         11.07367       10.81983        5.32594
H         12.20481       12.11104        4.74172
H         11.30805       11.08791        3.55264
N         13.71341        9.98561        5.67431
C         14.84196        9.07164        5.71928
C         14.33017        7.64055        5.66911
O         13.65401        7.20820        6.59270
C         15.68980        9.33669        6.97484
C         17.02369        8.65563        6.96229
O         17.86473        8.89963        7.97406
O         17.37644        7.93180        6.04371
H         13.51605       10.59203        6.48613
H         15.48504        9.30596        4.83951
H         15.12761        9.05628        7.89234
H         15.90778       10.42298        7.03138
N         14.56124        6.87650        4.56998
C         14.01682        5.53417        4.39094
C         14.61878        4.55642        5.37886
O         13.87162        3.85534        6.04655
C         14.23374        5.02102        2.94748
C         13.52775        5.93005        1.91938
C         13.58101        5.42070        0.47208
C         12.78501        4.12233        0.27003
N         12.71359        3.77024       -1.14718
H         15.09808        7.30248        3.80493
H         12.91294        5.56336        4.53820
H         13.79205        4.00422        2.89424
H         15.31514        4.94160        2.70628
H         14.00291        6.92797        1.93306
H         12.46123        6.06290        2.20285
H         14.63299        5.28045        0.14342
H         13.12131        6.20861       -0.16419
H         11.75030        4.26156        0.65528
H         13.26097        3.28893        0.82901
H         12.22073        4.52572       -1.67753
H         13.67435        3.63415       -1.53645
H         12.17230        2.88174       -1.25094
N         15.96936        4.46870        5.52995
C         16.62001        3.50066        6.41087
C         17.02886        4.09252        7.75760
O         17.55887        3.34875        8.57217
C         17.78725        2.80007        5.67106
C         18.91551        3.69877        5.23339
O         18.87927        5.02309        5.45127
O         19.87738        3.21790        4.65669
H         16.54922        5.13943        5.00902
H         15.89822        2.69560        6.67116
H         17.38228        2.30049        4.76445
H         18.21131        2.01493        6.33353
N         16.75231        5.38521        8.10476
C         17.00001        5.92077        9.44048
C         18.46489        6.05261        9.83506
O         18.71625        6.44619       10.96506
H         16.26443        5.99565        7.43612
H         16.48040        5.27165       10.17851
H         16.54627        6.93323        9.51137
N         19.48223        5.75778        8.97606
C         20.90793        5.83015        9.32627
C         21.40738        7.23162        9.70263
O         22.54402        7.33815       10.14083
C         21.76507        5.20983        8.18295
C         21.82368        6.01212        6.86076
N         22.86084        7.03378        6.89445
O         20.57342        6.57755        6.60655
H         19.22625        5.40511        8.04911
H         21.04029        5.17775       10.21772
H         21.31880        4.21793        7.95349
H         22.80155        5.01524        8.53158
H         23.77621        6.52939        6.95117
H         22.87654        7.50545        5.96297
N         20.62402        8.34075        9.57076
C         21.00173        9.68224        9.99044
C         21.01714       10.69480        8.85661
O         21.16250       11.87074        9.15950
H         19.68685        8.23782        9.18470
H         21.99625        9.70130       10.48590
H         20.25083       10.01355       10.74107
N         20.93652       10.33140        7.53927
C         21.02600       11.29085        6.43537
C         19.87147       11.06899        5.40256
O         20.29609       10.32366        4.28917
C         22.40897       11.14803        5.76059
C         23.55360       11.54909        6.65705
C         24.50057       10.60177        7.08342
C         23.70374       12.89073        7.04376
C         25.58281       10.99452        7.87767
C         24.79024       13.28234        7.83004
C         25.73651       12.33528        8.24661
O         26.79800       12.70272        8.99233
H         20.89299        9.33171        7.30908
H         20.93445       12.32677        6.82879
H         22.46038       11.78316        4.85034
H         22.53390       10.09000        5.44266
H         24.40666        9.56121        6.79965
H         22.99008       13.63738        6.71892
H         26.30908       10.25764        8.19747
H         24.89975       14.32332        8.10645
H         26.95285       13.62358        9.24744
N         19.25373       12.33624        4.97197
C         18.35232       12.20890        3.80090
C         19.12151       12.50486        2.51440
O         19.74684       13.55480        2.43680
C         17.15130       13.19368        3.91533
C         16.44047       13.04829        5.28368
C         16.15685       12.92874        2.75812
C         15.31959       14.06800        5.50118
H         19.95555       13.10305        4.84829
H         17.90620       11.18726        3.77791
H         17.53681       14.23483        3.84023
H         17.17928       13.21550        6.09626
H         16.02822       12.02422        5.38796
H         15.74390       11.89756        2.83086
H         15.31606       13.64808        2.76204
H         16.64875       13.03674        1.77151
H         14.48563       13.92026        4.78667
H         14.90541       13.94789        6.52385
H         15.71608       15.10087        5.39837
N         19.05632       11.66862        1.43933
C         19.71688       11.95794        0.16899
C         18.69688       12.31297       -0.90086
O         17.50178       12.23101       -0.65203
C         20.59642       10.76758       -0.25134
O         19.82012        9.61856       -0.47123
H         18.46450       10.83075        1.50042
H         20.37633       12.84640        0.27394
H         21.37483       10.57669        0.52426
H         21.14431       10.99950       -1.18830
H         19.84173        9.08637        0.36643
N         19.11292       12.77193       -2.11572
C         18.19864       13.16951       -3.18411
C         17.37337       11.99816       -3.66975
O         16.20116       12.18261       -3.96295
C         18.96615       13.77284       -4.36076
H         20.12803       12.86759       -2.27701
H         17.51957       13.96819       -2.80697
H         19.66551       13.03161       -4.80078
H         18.25200       14.10983       -5.14363
H         19.54165       14.65848       -4.01577
N         17.91962       10.75217       -3.75241
C         17.14647        9.56865       -4.10623
C         16.01549        9.36910       -3.11470
O         14.87105        9.25733       -3.53328
C         18.04940        8.32857       -4.11538
H         18.91625       10.63581       -3.51285
H         16.73302        9.68537       -5.13329
H         17.46204        7.43066       -4.40468
H         18.86723        8.46279       -4.85514
H         18.50119        8.15415       -3.11538
N         16.26847        9.34029       -1.77301
C         15.22539        9.13905       -0.76688
C         14.17365       10.24555       -0.78669
O         13.11284       10.04577       -0.21181
C         15.83072        9.04537        0.65506
C         16.81751        7.87019        0.79713
C         17.40223        7.77796        2.17801
O         18.03966        8.70508        2.64696
O         17.27158        6.64450        2.88890
H         17.24466        9.46250       -1.46881
H         14.71595        8.17834       -1.00471
H         15.01290        8.91565        1.39457
H         16.34614       10.00210        0.88755
H         17.65909        7.97852        0.08744
H         16.29385        6.92171        0.56189
N         14.40085       11.43862       -1.40650
C         13.42843       12.50757       -1.49834
H         12.45466       12.23709       -1.04131
H         13.82565       13.41187       -0.99164
H         13.25707       12.74859       -2.56951
H         15.31538       11.61988       -1.82674
Ca        20.56782        8.23959        5.08858
O         22.30294        7.82043        2.69564
H         22.64190        8.61152        3.18534
H         22.53892        7.05136        3.27354
O         20.01292        5.75282        2.40253
H         20.45615        4.86811        2.41747
H         19.99443        6.00671        1.44557

Ca 1.0



