%chk=holoCaM-CaMKII.loop4.water1.frame201.chk
%nprocshared=20
%mem=10GB
%nosave
#b3lyp/svp scf=(tight,noincore,xqc) Test 
#IOP(5/87=12) Density=Current Pop=(MK,readradii) iop(6/33=2) iop(6/42=6)

holoCaM-CaMKII.loop4.water1.frame201 

   -3  1 
C          7.76325       42.95189       19.93453
C          8.30991       41.60555       19.57588
O          8.31615       41.24426       18.40832
H          6.91656       42.83182       20.64129
H          8.56300       43.54917       20.42396
H          7.41646       43.49359       19.03032
N          8.83430       40.82122       20.55206
C          9.47397       39.54380       20.28436
C          8.44795       38.49222       19.87239
O          7.63248       38.09091       20.69127
C         10.24112       39.12164       21.54790
C         11.06711       37.89476       21.41241
O         11.74408       37.47328       22.48675
O         11.14554       37.28478       20.36263
H          8.84422       41.19557       21.51453
H         10.22309       39.70243       19.47442
H          9.52343       38.96597       22.38139
H         10.93809       39.94120       21.82932
N          8.42102       38.02818       18.59290
C          7.45623       37.04976       18.10125
C          7.87927       35.64389       18.53047
O          7.13901       35.01065       19.27013
C          7.28387       37.20770       16.55166
C          6.76344       38.64371       16.23569
C          6.32387       36.14779       15.97666
C          6.71909       38.99525       14.74848
H          9.05814       38.46585       17.91800
H          6.45763       37.27457       18.54283
H          8.27561       37.06932       16.06796
H          7.43095       39.39786       16.69676
H          5.75060       38.78230       16.67432
H          6.24367       36.24012       14.87425
H          6.70097       35.12396       16.17750
H          5.31060       36.25223       16.41942
H          6.00349       38.35743       14.19437
H          6.38644       40.05012       14.63708
H          7.73058       38.90020       14.30108
N          9.03813       35.07713       18.07459
C          9.42596       33.69172       18.37252
C          9.90608       33.45252       19.81762
O         10.19003       32.30912       20.14579
C         10.41276       33.16699       17.29948
C         11.73921       33.86251       17.26113
O         12.07454       34.49796       16.27393
O         12.59630       33.72631       18.28298
H          9.60518       35.61700       17.40459
H          8.52394       33.05559       18.22500
H          9.92116       33.28621       16.30783
H         10.59645       32.08072       17.44709
N          9.95787       34.44993       20.75013
C         10.23097       34.23677       22.17349
C         11.66057       33.87694       22.58382
O         11.87837       33.73273       23.77817
H          9.66714       35.39480       20.47500
H          9.53175       33.46350       22.55719
H          9.99299       35.18429       22.70609
N         12.68502       33.74754       21.69460
C         14.08070       33.44168       22.07648
C         14.72420       34.43170       23.05254
O         15.74494       34.08707       23.63319
C         15.00935       33.35090       20.83416
C         15.04474       34.62926       20.01541
O         15.86462       34.76413       19.12236
O         13.94006       35.39553       20.03391
H         12.44348       33.83964       20.70534
H         14.06016       32.45428       22.58856
H         14.64894       32.53667       20.16953
H         16.03889       33.08227       21.15656
N         14.21724       35.67454       23.25730
C         14.74801       36.63615       24.21269
C         15.17711       37.95002       23.58339
O         15.40735       38.88385       24.33729
H         13.39603       35.94700       22.71886
H         15.60267       36.23067       24.79814
H         13.93078       36.85702       24.93177
N         15.35997       38.09829       22.23615
C         15.78367       39.35963       21.62252
C         14.89854       39.74218       20.44265
O         14.00306       39.00289       20.06523
C         17.26485       39.25483       21.18451
C         18.20359       39.35207       22.39926
C         19.65237       39.28272       21.99574
N         20.17249       38.14247       21.48822
O         20.36996       40.26076       22.14714
H         15.25717       37.27786       21.62259
H         15.69570       40.20243       22.34358
H         17.53764       40.10767       20.52731
H         17.42237       38.32023       20.60285
H         17.99705       38.55174       23.13897
H         18.01855       40.33582       22.88855
H         19.58721       37.30203       21.37821
H         21.16818       38.09399       21.22589
N         15.12181       40.94042       19.82625
C         14.38699       41.45924       18.67949
C         15.37407       41.64481       17.52982
O         16.39248       42.29319       17.71998
C         13.69497       42.79614       19.07993
C         13.05045       43.50819       17.87890
C         12.60715       42.53654       20.13870
H         15.86849       41.54534       20.19927
H         13.58785       40.76338       18.36019
H         14.45563       43.48740       19.50578
H         12.57940       44.46011       18.20534
H         13.81361       43.76564       17.11607
H         12.27017       42.87415       17.41605
H         12.12581       43.49068       20.44277
H         11.81969       41.86474       19.73000
H         13.03667       42.06495       21.04638
N         15.09735       41.13888       16.28963
C         15.94550       41.32505       15.11788
C         15.28240       42.33309       14.20265
O         14.27300       42.89433       14.58184
C         16.28240       39.97939       14.40489
C         15.26878       39.43791       13.40763
N         14.05238       39.00244       13.78362
O         15.57899       39.36910       12.22750
H         14.19446       40.69726       16.13696
H         16.92042       41.75189       15.43631
H         16.54721       39.20519       15.15695
H         17.20315       40.16593       13.81106
H         13.78325       39.02110       14.76079
H         13.38504       38.62551       13.09471
N         15.79681       42.63274       12.98560
C         15.19995       43.63313       12.10521
C         13.75075       43.29767       11.74979
O         12.88580       44.14391       11.92954
C         16.07993       43.76500       10.84838
C         15.67779       44.90145        9.94461
C         15.66119       46.22360       10.42440
C         15.35422       44.65467        8.60178
C         15.32624       47.27907        9.57370
C         15.02683       45.71339        7.75046
C         15.01390       47.03012        8.23400
O         14.71126       48.06157        7.42102
H         16.65250       42.14381       12.68476
H         15.21669       44.60876       12.63753
H         16.08207       42.79740       10.29927
H         17.12388       43.96808       11.17358
H         15.91535       46.44328       11.45354
H         15.36913       43.64545        8.20928
H         15.32004       48.29248        9.95526
H         14.79087       45.50908        6.71423
H         14.50803       47.93382        6.48364
N         13.41793       42.07141       11.26181
C         12.06169       41.67216       10.86901
C         11.05168       41.85727       12.00220
O         10.04715       42.51820       11.77853
C         12.06776       40.21279       10.35646
C         12.86416       40.08701        9.04100
C         12.95263       38.66178        8.58099
O         13.58607       37.74727        9.34038
O         12.48311       38.33131        7.50380
H         14.17993       41.38341       11.17498
H         11.72017       42.31105       10.02312
H         11.02551       39.88028       10.15278
H         12.49562       39.55008       11.13751
H         13.90137       40.46075        9.15886
H         12.36375       40.70399        8.26135
N         11.26490       41.34448       13.24767
C         10.35137       41.55159       14.38233
C         10.11001       43.04022       14.60602
O          8.96028       43.45721       14.62214
C         10.93023       40.90104       15.66639
C         10.94209       39.36185       15.57927
C         11.74173       38.71571       16.68286
O         11.24570       37.76001       17.46366
O         12.90870       38.99299       16.84231
H         12.14270       40.82955       13.40114
H          9.36596       41.07733       14.17370
H         10.33202       41.18851       16.55873
H         11.96151       41.28524       15.80068
H         11.41281       39.05044       14.62871
H          9.90042       38.97812       15.57590
N         11.15374       43.90078       14.74154
C         11.02057       45.33237       14.91612
H          9.96166       45.65549       14.98437
H         11.54796       45.63854       15.84363
H         11.49338       45.85131       14.05437
H         12.10036       43.52715       14.68695
Ca        12.91717       36.60617       18.45350
O         15.29318       36.80654       16.46495
H         15.59548       36.51158       15.56953
H         16.10640       36.76634       17.02837

Ca 1.0



