%chk=holoCaM-CaMKII.loop2.water1.frame295.chk
%nprocshared=20
%mem=10GB
%nosave
#b3lyp/svp scf=(tight,noincore,xqc) Test 
#IOP(5/87=12) Density=Current Pop=(MK,readradii) iop(6/33=2) iop(6/42=6)

holoCaM-CaMKII.loop2.water1.frame295 

   -2  1 
C         46.24282       13.21709       70.65112
C         47.60224       13.34351       70.01731
O         47.73716       14.02378       69.01110
H         45.52817       12.76206       69.93633
H         46.27703       12.57859       71.56153
H         45.87717       14.22019       70.95527
N         48.66881       12.72591       70.58805
C         50.04321       12.83547       70.10785
C         50.25193       12.19346       68.73443
O         49.54938       11.25530       68.38624
C         50.95146       12.18253       71.16342
C         52.39161       12.17572       70.79923
O         53.04645       13.33009       70.56625
O         52.97493       11.10728       70.72664
H         48.49583       12.18871       71.45290
H         50.30839       13.91464       70.04551
H         50.62421       11.13095       71.32104
H         50.84081       12.73339       72.12240
N         51.22193       12.68535       67.90325
C         51.51972       12.18315       66.56494
C         53.01730       11.90837       66.33890
O         53.35988       11.56507       65.21474
C         51.04304       13.22884       65.54791
H         51.75028       13.50530       68.21893
H         50.95326       11.24846       66.35983
H         51.58421       14.18973       65.68347
H         51.20556       12.86867       64.50853
H         49.95421       13.40988       65.67588
N         53.96769       12.03048       67.32251
C         55.40792       11.86526       67.04707
C         56.32467       11.59354       68.25842
O         57.49871       11.33915       68.02473
C         55.91848       13.09645       66.26928
C         55.79456       14.37413       67.05027
O         56.07220       15.43096       66.50621
O         55.39380       14.38891       68.33740
H         53.64726       12.27036       68.25983
H         55.52614       10.96092       66.41004
H         55.32302       13.21237       65.33984
H         56.98134       12.96491       65.97231
N         55.89087       11.58190       69.55187
C         56.71334       11.18721       70.68612
C         57.82755       12.14718       71.04991
O         58.59870       11.80288       71.93450
H         54.92371       11.78740       69.76120
H         57.14093       10.18379       70.47088
H         56.06737       11.08858       71.58613
N         57.99527       13.35261       70.43534
C         59.13503       14.22419       70.71622
C         59.20341       14.76152       72.15209
O         60.24711       15.29698       72.49796
C         59.19904       15.38354       69.69233
C         58.02156       16.32655       69.73849
N         57.96227       17.37784       68.89200
O         57.11333       16.14544       70.53105
H         57.33805       13.62740       69.69563
H         60.04696       13.60681       70.55588
H         59.24832       14.94979       68.66950
H         60.12650       15.97029       69.86216
H         58.71223       17.54771       68.20754
H         57.16182       18.02371       68.92194
N         58.15792       14.68491       73.03151
C         58.24266       15.13769       74.42053
C         57.36583       16.34164       74.73334
O         57.30695       16.72239       75.89445
H         57.26085       14.28770       72.71992
H         59.28274       15.41769       74.69638
H         57.94918       14.28804       75.07277
N         56.71393       17.03115       73.75600
C         55.92632       18.24585       73.96858
C         54.53728       18.10534       73.35886
O         54.24583       17.08155       72.75413
C         56.66069       19.44018       73.28996
C         57.95363       19.79478       74.02412
O         56.96967       19.14626       71.94924
H         56.82489       16.72029       72.78719
H         55.80183       18.46714       75.05198
H         56.04270       20.36394       73.33162
H         56.11723       19.14497       71.44197
H         57.72541       20.08704       75.07180
H         58.66223       18.94108       74.02856
H         58.44055       20.65900       73.52268
N         53.65372       19.14770       73.41429
C         52.40943       19.17982       72.65382
C         52.58211       20.23943       71.58091
O         52.69565       21.41063       71.92196
C         51.17159       19.51449       73.54365
C         51.01957       18.51953       74.71920
C         49.89589       19.54575       72.67333
C         49.84403       18.85791       75.64650
H         53.91998       20.00079       73.93026
H         52.23546       18.19628       72.16705
H         51.32010       20.52845       73.97980
H         51.94379       18.55327       75.33523
H         50.89147       17.48482       74.33504
H         49.99867       20.27249       71.84583
H         49.69223       18.54238       72.24346
H         49.01384       19.88267       73.25056
H         49.93930       19.89513       76.03398
H         48.87041       18.75206       75.12571
H         49.82976       18.15716       76.50632
N         52.65161       19.90421       70.26180
C         52.82870       20.91648       69.22077
C         51.53120       21.64801       68.96607
O         50.53381       21.32784       69.59041
C         53.32939       20.29629       67.90929
C         54.57084       19.50875       68.13967
O         54.57620       18.24197       67.71987
O         55.54217       19.98907       68.70299
H         52.62988       18.90673       70.00060
H         53.61170       21.63603       69.54916
H         53.55514       21.09050       67.17023
H         52.55524       19.61921       67.48191
N         51.46381       22.65183       68.05017
C         50.22768       23.36859       67.78519
C         49.14206       22.44963       67.21402
O         48.06719       22.43941       67.79751
C         50.47340       24.60331       66.88979
C         49.22330       25.43650       66.76917
C         48.67841       26.05837       67.90676
C         48.58777       25.59611       65.52701
C         47.51543       26.82264       67.80342
C         47.42134       26.36038       65.42892
C         46.88585       26.97276       66.56587
H         52.32157       22.93621       67.55410
H         49.87246       23.76979       68.76024
H         50.82910       24.31100       65.88978
H         51.27206       25.23567       67.33445
H         49.15462       25.95471       68.87384
H         48.98797       25.12304       64.63854
H         47.10369       27.29717       68.68454
H         46.93147       26.47643       64.47138
H         45.98344       27.56400       66.48890
N         49.30914       21.64972       66.10621
C         48.26395       20.78138       65.56424
C         47.66107       19.86741       66.61090
O         46.44729       19.74645       66.69253
C         48.99951       19.92708       64.51801
C         50.07170       20.87127       64.04140
C         50.54067       21.48627       65.35424
H         47.48680       21.40977       65.07416
H         49.53916       19.08503       65.01016
H         48.34353       19.50085       63.72869
H         50.87755       20.40449       63.43569
H         49.57930       21.66742       63.43743
H         51.20513       20.79467       65.91406
H         51.07917       22.41181       65.10985
N         48.49072       19.20253       67.45873
C         48.05697       18.26080       68.48233
C         47.09311       18.93192       69.44382
O         45.99069       18.43222       69.61839
C         49.28690       17.68500       69.22646
C         50.22427       16.92612       68.26072
C         51.44040       16.36126       68.92640
O         52.28229       15.81045       68.23923
O         51.63139       16.46304       70.25562
H         49.49644       19.40295       67.37025
H         47.53530       17.40461       67.99803
H         48.94000       16.98062       70.01425
H         49.85177       18.51103       69.71265
H         50.59945       17.60210       67.46781
H         49.66897       16.09654       67.77246
N         47.42892       20.09614       70.06367
C         46.54641       20.82569       70.95040
H         45.57799       20.30702       71.10666
H         47.04087       20.95965       71.93436
H         46.34141       21.82751       70.51587
H         48.34554       20.51132       69.87341
Ca        54.87580       16.44427       68.97514
O         54.46035       14.28146       72.84915
H         54.83158       13.36447       72.87392
H         53.55351       14.19640       73.23825

Ca 1.0



