%chk=holoCaM.loop2.water2.frame294.chk
%nprocshared=20
%mem=10GB
%nosave
#b3lyp/svp scf=(tight,noincore,xqc) Test 
#IOP(5/87=12) Density=Current Pop=(MK,readradii) iop(6/33=2) iop(6/42=6)

holoCaM.loop2.water2.frame294 

   -2  1 
C         38.87945       33.83092       48.10336
C         38.32938       32.89546       47.05946
O         37.25183       32.35506       47.25347
H         39.85651       34.26037       47.79219
H         38.17163       34.67236       48.26133
H         39.02498       33.29204       49.06198
N         39.01886       32.67575       45.90757
C         38.53572       31.84695       44.80600
C         38.37103       30.38216       45.19527
O         39.31428       29.78079       45.68926
C         39.51277       31.96151       43.62266
C         39.05066       31.15457       42.44852
O         39.77177       30.28688       41.98454
O         37.83209       31.36948       41.91892
H         39.92033       33.16495       45.78998
H         37.55927       32.25492       44.46108
H         40.52687       31.62504       43.93218
H         39.57915       33.02477       43.31022
N         37.19596       29.73813       44.92664
C         36.93655       28.33065       45.21012
C         36.57932       27.51429       43.95637
O         36.33783       26.32489       44.11158
C         35.77736       28.25500       46.21346
H         36.43668       30.27680       44.49460
H         37.82738       27.85863       45.67754
H         35.56313       27.20194       46.49455
H         36.03551       28.81494       47.13777
H         34.85601       28.70120       45.77781
N         36.48366       28.06353       42.70353
C         35.94646       27.32161       41.54831
C         36.56268       27.69425       40.19074
O         36.14632       27.11505       39.19639
C         34.41173       27.49007       41.50822
C         33.96420       28.91264       41.37995
O         34.85650       29.90829       41.27350
O         32.77509       29.17968       41.44431
H         36.62563       29.07499       42.61485
H         36.13470       26.23440       41.68515
H         33.99735       27.09895       42.46286
H         33.97388       26.89771       40.67684
N         37.55931       28.61417       40.05751
C         38.20255       28.93907       38.78941
C         37.36722       29.73407       37.79339
O         37.90238       30.03299       36.73484
H         37.94906       29.04947       40.89618
H         38.55976       27.99981       38.31345
H         39.09633       29.56372       39.00597
N         36.08068       30.12744       38.02940
C         35.29449       30.88911       37.05106
C         35.76869       32.34468       36.85686
O         35.17558       33.03358       36.03802
C         33.78533       30.83409       37.40302
C         33.40634       31.53447       38.67658
N         32.11928       31.55111       39.08857
O         34.25741       32.09499       39.34092
H         35.62544       29.83114       38.90037
H         35.37504       30.36517       36.07258
H         33.47818       29.76820       37.48429
H         33.20244       31.29379       36.57586
H         31.38366       31.07980       38.54285
H         31.85846       32.03993       39.95578
N         36.83035       32.87739       37.53795
C         37.34859       34.22459       37.30402
C         36.52511       35.36478       37.89271
O         36.92089       36.50571       37.70260
H         37.36105       32.28667       38.18950
H         37.48690       34.37405       36.21066
H         38.35239       34.30089       37.77467
N         35.39571       35.15113       38.62368
C         34.56438       36.20811       39.19735
C         34.36764       36.01463       40.69379
O         33.97833       34.93162       41.10340
C         33.17171       36.19681       38.51934
C         33.25783       36.64058       37.06031
O         32.59161       34.91586       38.57019
H         35.08169       34.18929       38.76206
H         35.00100       37.21732       39.02738
H         32.50983       36.94103       39.02540
H         32.08815       34.84920       39.42245
H         32.24096       36.65015       36.61388
H         33.67362       37.66971       37.00140
H         33.90167       35.95334       36.47322
N         34.49850       37.06653       41.55875
C         34.04903       36.99855       42.95184
C         32.56195       36.66573       42.96519
O         31.77847       37.35627       42.32934
C         34.32749       38.33378       43.72562
C         35.85751       38.50700       43.92644
C         33.60612       38.34980       45.09379
C         36.26103       39.78533       44.66786
H         34.82945       37.97129       41.19090
H         34.59994       36.19527       43.48672
H         33.92292       39.18701       43.13707
H         36.35706       38.51982       42.93576
H         36.25482       37.64435       44.50455
H         33.75399       39.31003       45.62451
H         32.50934       38.27498       44.96054
H         33.95708       37.51656       45.73640
H         35.88372       39.79001       45.71127
H         37.36813       39.83796       44.73076
H         35.88603       40.68145       44.13216
N         32.11594       35.63665       43.73631
C         30.71174       35.26541       43.88339
C         30.20608       35.85887       45.17490
O         30.97234       36.49695       45.87363
C         30.57175       33.73014       43.97575
C         31.28538       33.00870       42.88698
O         32.59368       33.25791       42.73507
O         30.73230       32.14184       42.23012
H         32.79809       35.14832       44.33016
H         30.11442       35.65959       43.03270
H         29.50518       33.41939       44.01655
H         31.06474       33.39563       44.91557
N         28.91713       35.69321       45.56963
C         28.44894       36.24904       46.82918
C         29.17319       35.62068       48.02574
O         29.74411       36.39257       48.78840
C         26.91206       36.18320       46.92280
C         26.40945       36.77220       48.21703
C         26.70106       38.10448       48.56522
C         25.64374       35.98598       49.09276
C         26.24015       38.63355       49.77246
C         25.17871       36.52220       50.29573
C         25.47827       37.84379       50.63655
H         28.26138       35.18907       44.95597
H         28.68910       37.33512       46.81921
H         26.54401       35.15092       46.80727
H         26.48359       36.76226       46.07620
H         27.28781       38.73533       47.90997
H         25.40631       34.95868       48.84492
H         26.47421       39.65663       50.03667
H         24.58700       35.91108       50.96389
H         25.11968       38.25625       51.56982
N         29.23893       34.27233       48.27716
C         29.94769       33.68324       49.41169
C         31.37402       34.17975       49.55887
O         31.79183       34.51099       50.65730
C         29.96982       32.18111       49.08808
C         28.67008       32.00781       48.34770
C         28.67050       33.23077       47.43842
H         29.36426       33.87102       50.34085
H         30.77341       31.95219       48.34973
H         30.11249       31.52294       49.97186
H         28.54707       31.03848       47.81940
H         27.84492       32.12185       49.08802
H         29.32780       33.08777       46.55534
H         27.63122       33.40010       47.12470
N         32.17099       34.24743       48.45923
C         33.57610       34.64055       48.48286
C         33.72165       36.04607       49.03514
O         34.43845       36.22467       50.01026
C         34.18116       34.51509       47.06598
C         34.08732       33.05512       46.56390
C         34.60031       32.83686       45.17873
O         35.07810       33.74291       44.51737
O         34.48724       31.60945       44.64619
H         31.73619       34.00896       47.55776
H         34.14202       33.94025       49.13742
H         35.24993       34.82386       47.08417
H         33.63650       35.18953       46.37719
H         33.03713       32.71014       46.53810
H         34.64414       32.38968       47.25501
N         33.03013       37.08289       48.48860
C         33.06288       38.43745       49.00008
H         32.03919       38.72903       49.31891
H         33.74308       38.54629       49.87008
H         33.39641       39.12844       48.19901
H         32.41902       36.90208       47.68647
Ca        34.04845       31.83575       41.93354
O         37.22683       33.67228       40.54996
H         37.37730       34.64862       40.59433
H         38.09306       33.30730       40.23910
O         37.48817       34.89732       43.24584
H         36.92227       35.44092       43.84660
H         38.41030       35.19808       43.44006

Ca 1.0



