%chk=holoCaM-CaMKII.loop2.water1.frame211.chk
%nprocshared=20
%mem=10GB
%nosave
#b3lyp/svp scf=(tight,noincore,xqc) Test 
#IOP(5/87=12) Density=Current Pop=(MK,readradii) iop(6/33=2) iop(6/42=6)

holoCaM-CaMKII.loop2.water1.frame211 

   -2  1 
C         20.26708       49.33889       37.16463
C         19.40998       49.56303       38.37755
O         19.75939       49.10844       39.45382
H         21.17466       48.75085       37.41816
H         19.69038       48.80417       36.38258
H         20.59270       50.32342       36.76219
N         18.27456       50.30121       38.26981
C         17.45279       50.70633       39.40722
C         16.78910       49.52109       40.10942
O         16.10005       48.76116       39.44320
C         16.36370       51.68468       38.91562
C         15.67781       52.42203       40.02964
O         14.75648       53.17843       39.77182
O         16.12057       52.32880       41.29694
H         18.03142       50.65832       37.33204
H         18.10551       51.26777       40.10229
H         15.61879       51.12552       38.30830
H         16.82298       52.46515       38.27123
N         16.90263       49.34206       41.46289
C         16.22564       48.27510       42.20068
C         15.21224       48.79503       43.22689
O         14.50941       47.96999       43.79451
C         17.27498       47.42025       42.92193
H         17.47949       49.99768       42.00116
H         15.66583       47.62416       41.49555
H         17.83267       48.03915       43.66002
H         16.79398       46.57747       43.46354
H         17.99985       47.00157       42.19297
N         15.10893       50.11632       43.56325
C         14.21847       50.62339       44.61065
C         13.34605       51.80406       44.16287
O         12.58968       52.30066       44.98679
C         15.06020       50.96216       45.86103
C         16.25516       51.82409       45.58054
O         17.48839       51.35891       45.85477
O         16.12403       52.93384       45.10193
H         15.75478       50.78998       43.13908
H         13.50385       49.83702       44.93892
H         15.44269       50.00686       46.28138
H         14.42255       51.43591       46.63810
N         13.34370       52.27847       42.88352
C         12.45356       53.33544       42.41386
C         12.72046       54.73332       42.95336
O         11.99009       55.63006       42.55402
H         13.92491       51.81585       42.17672
H         11.40348       53.05004       42.64167
H         12.54504       53.40489       41.30857
N         13.71811       55.02401       43.84020
C         13.93776       56.37686       44.35839
C         14.51781       57.35297       43.32547
O         14.72299       58.50670       43.67787
C         14.76635       56.34873       45.66532
C         16.19995       55.90200       45.56821
N         16.94983       55.86533       46.69321
O         16.69179       55.57547       44.49969
H         14.29693       54.26076       44.20355
H         12.95081       56.77695       44.68324
H         14.24798       55.67925       46.38670
H         14.76984       57.37180       46.10058
H         16.54579       56.13021       47.60338
H         17.93394       55.57662       46.66338
N         14.76267       56.99175       42.02961
C         15.20815       57.93009       41.00842
C         16.67888       58.29936       41.07200
O         17.09573       59.07709       40.22541
H         14.54089       56.04052       41.71158
H         14.57237       58.84267       41.04363
H         15.05250       57.46364       40.01181
N         17.53094       57.78771       42.00848
C         18.95282       58.12250       42.07189
C         19.83086       56.88195       42.01393
O         19.44018       55.83089       42.50394
C         19.26516       58.89345       43.37282
C         18.53866       60.23840       43.40935
O         18.89119       58.14336       44.50145
H         17.16350       57.14899       42.72098
H         19.24318       58.78181       41.22333
H         20.35673       59.12418       43.41274
H         19.61223       57.48096       44.66518
H         17.43782       60.09461       43.38769
H         18.80698       60.78271       44.33900
H         18.83958       60.86028       42.53875
N         21.08744       56.97303       41.49169
C         22.05335       55.87902       41.52603
C         22.49089       55.63979       42.96400
O         22.98889       56.56567       43.59057
C         23.31590       56.21018       40.65930
C         22.98437       56.47976       39.16484
C         24.39239       55.10607       40.76997
C         22.41696       55.28369       38.39239
H         21.37632       57.87393       41.08157
H         21.59430       54.96318       41.10142
H         23.77004       57.14581       41.05677
H         23.91753       56.80132       38.65191
H         22.26613       57.32066       39.08175
H         24.75070       55.00374       41.81406
H         23.99796       54.11991       40.44754
H         25.27729       55.36350       40.15033
H         22.23082       55.58760       37.34074
H         23.13722       54.44027       38.37134
H         21.45657       54.94127       38.82650
N         22.43038       54.39214       43.50770
C         23.04483       54.04530       44.78778
C         24.26329       53.17691       44.52832
O         24.54798       52.87622       43.37930
C         22.02365       53.36087       45.70478
C         20.98284       54.33523       46.18704
O         19.69000       54.16260       45.86969
O         21.30330       55.26172       46.91455
H         22.03548       53.62505       42.94296
H         23.43889       54.94846       45.30348
H         22.51748       52.95016       46.61031
H         21.56259       52.50706       45.16315
N         25.09636       52.82093       45.54576
C         26.39346       52.19865       45.30335
C         26.29634       50.84582       44.59642
O         26.90866       50.73893       43.54281
C         27.24539       52.15553       46.59339
C         28.62574       51.59576       46.33964
C         29.05066       50.43227       47.00360
C         29.50156       52.22913       45.43838
C         30.32597       49.91102       46.76617
C         30.77386       51.70258       45.20237
C         31.18609       50.54456       45.86546
H         24.85079       53.09996       46.50821
H         26.94542       52.88195       44.61944
H         26.74358       51.57788       47.38577
H         27.35345       53.18924       46.98802
H         28.39594       49.92675       47.70269
H         29.20349       53.12927       44.91655
H         30.64711       49.01468       47.28029
H         31.44011       52.19378       44.50502
H         32.17232       50.13911       45.68179
N         25.58148       49.76994       45.06117
C         25.50721       48.48757       44.36397
C         25.14810       48.62587       42.89891
O         25.78616       47.99906       42.06470
C         24.39266       47.73580       45.10011
C         24.55232       48.25579       46.50513
C         24.76681       49.74654       46.26008
H         26.47832       47.95537       44.48543
H         23.39468       48.08690       44.75138
H         24.43837       46.63091       44.98687
H         23.72249       48.01325       47.20131
H         25.49847       47.82831       46.91310
H         23.81491       50.28400       46.05267
H         25.25075       50.15002       47.16081
N         24.15147       49.47550       42.52120
C         23.73708       49.67154       41.13730
C         24.91645       50.09589       40.28030
O         25.23006       49.41158       39.31633
C         22.64581       50.75759       41.02336
C         21.36666       50.48589       41.83271
C         20.36726       51.59490       41.64029
O         19.21414       51.58023       42.32116
O         20.60865       52.55066       40.91869
H         23.68902       50.02004       43.26239
H         23.32336       48.71391       40.74764
H         22.36788       50.85229       39.94941
H         23.05681       51.73196       41.36537
H         21.59109       50.43553       42.91678
H         20.91878       49.51804       41.53788
N         25.61742       51.22346       40.57957
C         26.73685       51.68021       39.79034
H         27.53391       50.90788       39.78031
H         26.40425       51.89534       38.75323
H         27.14881       52.61332       40.23196
H         25.35264       51.78126       41.39911
Ca        19.17878       52.85539       44.13869
O         17.11578       55.04576       40.80457
H         16.35684       55.30664       40.22591
H         17.82881       54.78543       40.17009

Ca 1.0



