%chk=holoCaM-CaMKII.loop3.water2.frame111.chk
%nprocshared=20
%mem=10GB
%nosave
#b3lyp/svp scf=(tight,noincore,xqc) Test 
#IOP(5/87=12) Density=Current Pop=(MK,readradii) iop(6/33=2) iop(6/42=6)

holoCaM-CaMKII.loop3.water2.frame111 

   0  1 
C         31.25745       28.67168       78.32077
C         31.89772       28.32601       79.62819
O         32.51118       27.27500       79.74014
H         30.16368       28.79787       78.47487
H         31.68399       29.62110       77.93805
H         31.41970       27.86552       77.57486
N         31.74489       29.16397       80.68723
C         32.24206       28.87834       82.02108
C         31.03883       28.55576       82.88124
O         30.71799       29.26323       83.82577
C         33.09063       30.06241       82.51284
C         33.61073       29.83193       83.89147
O         33.28572       30.68591       84.87683
O         34.31900       28.86929       84.12477
H         31.18281       30.02027       80.56001
H         32.89027       27.97146       82.02997
H         32.48940       30.99548       82.49828
H         33.96200       30.19508       81.84322
N         30.31221       27.45414       82.55407
C         29.13163       26.99052       83.26575
C         29.50918       26.60429       84.68849
O         28.89777       27.10257       85.62296
C         28.53615       25.79667       82.47863
C         27.15839       25.29442       82.93552
C         26.04444       26.33508       82.72407
C         24.66121       25.71729       82.97210
N         23.59875       26.69843       82.75106
H         30.62576       26.91083       81.73448
H         28.38071       27.80921       83.26957
H         29.25590       24.95002       82.50439
H         28.42496       26.09961       81.41250
H         27.18989       24.95846       83.99355
H         26.92303       24.41365       82.29748
H         26.07586       26.69908       81.67296
H         26.19306       27.19842       83.40616
H         24.60126       25.33524       84.01458
H         24.51221       24.86203       82.27460
H         23.70006       27.49526       83.42052
H         23.63476       27.05587       81.76840
H         22.67207       26.23968       82.90711
N         30.55054       25.74720       84.91862
C         30.98847       25.33605       86.25733
C         31.41570       26.49459       87.16615
O         31.54956       26.26887       88.36093
C         32.12647       24.29085       86.17910
C         33.39381       24.84764       85.58460
O         34.52294       24.88299       86.31694
O         33.41029       25.25619       84.43585
H         31.02956       25.35543       84.09540
H         30.11150       24.84724       86.73629
H         31.79752       23.41995       85.57193
H         32.34887       23.92247       87.20419
N         31.62321       27.75422       86.69016
C         31.87010       28.90703       87.54156
C         33.17883       28.84711       88.29352
O         33.16257       28.91261       89.51424
H         31.55093       27.92726       85.68230
H         31.02036       29.01978       88.24923
H         31.89550       29.81917       86.90920
N         34.35756       28.77904       87.61471
C         35.67588       28.83417       88.25117
C         36.48817       30.04082       87.76418
O         37.61226       30.20953       88.21368
C         36.40738       27.47431       88.06708
C         36.99931       27.15564       86.67161
N         38.33957       27.70848       86.52683
O         36.17306       27.66770       85.67083
H         34.30073       28.70574       86.59386
H         35.54541       28.95678       89.34885
H         35.67696       26.68035       88.33099
H         37.22659       27.39335       88.81540
H         38.94501       27.34013       87.29653
H         38.73749       27.31963       85.64472
N         35.96875       30.93703       86.86840
C         36.64996       32.13174       86.39773
C         37.41513       31.93135       85.10252
O         37.93265       32.92003       84.60123
H         34.99922       30.83484       86.55637
H         37.31063       32.55062       87.18776
H         35.87453       32.90409       86.19642
N         37.57259       30.70506       84.51647
C         38.37201       30.49608       83.30996
C         37.62100       29.69796       82.25629
O         36.89080       28.78079       82.60147
C         39.67241       29.72778       83.62965
C         40.57791       30.45945       84.59308
C         41.78898       31.00989       84.14208
C         40.23569       30.58898       85.94915
C         42.62957       31.69062       85.02737
C         41.07729       31.26468       86.83458
C         42.27492       31.82112       86.37781
O         43.07551       32.47495       87.24280
H         37.17589       29.87541       84.97534
H         38.69118       31.46564       82.86655
H         40.21121       29.58821       82.66559
H         39.45707       28.71676       84.02569
H         42.07976       30.92181       83.10275
H         39.32219       30.16105       86.32647
H         43.55509       32.11601       84.66163
H         40.79683       31.35401       87.87677
H         43.91116       32.87664       86.96588
N         37.91520       29.88609       80.93731
C         37.44620       29.02350       79.85353
C         38.65626       28.32269       79.24688
O         39.70450       28.93708       79.09700
C         36.66706       29.83707       78.77696
C         35.40953       30.48223       79.40790
C         36.26185       28.92900       77.59096
C         34.66344       31.43271       78.46890
H         38.57005       30.64403       80.68767
H         36.75232       28.24158       80.23967
H         37.33530       30.63970       78.39465
H         35.71120       31.08175       80.29252
H         34.71302       29.68239       79.74127
H         35.60231       28.10181       77.93451
H         35.74071       29.49541       76.79604
H         37.15491       28.49332       77.10262
H         34.25606       30.90717       77.58270
H         33.80422       31.88215       79.00952
H         35.34069       32.24783       78.13673
N         38.55278       27.02761       78.84237
C         39.63650       26.24915       78.25203
C         39.29188       25.84759       76.82415
O         38.24195       26.22713       76.33186
C         39.86348       25.00556       79.12844
O         38.70218       24.22104       79.16091
H         37.64043       26.56492       78.94687
H         40.58069       26.83544       78.22323
H         40.11378       25.33446       80.16045
H         40.71078       24.40864       78.72704
H         38.94596       23.37055       79.60866
N         40.13293       25.06871       76.08955
C         39.78968       24.57635       74.75806
C         38.56965       23.66921       74.82734
O         37.61067       23.89892       74.10504
C         40.96797       23.80420       74.15205
H         41.03899       24.79522       76.50068
H         39.58599       25.43631       74.08013
H         41.85250       24.47138       74.06954
H         41.24024       22.92711       74.77642
H         40.70594       23.45015       73.13130
N         38.54632       22.62008       75.69908
C         37.44249       21.66845       75.81153
C         36.11864       22.35286       76.10933
O         35.17068       22.15772       75.36152
C         37.75216       20.64426       76.91370
H         39.36583       22.49114       76.31307
H         37.34932       21.11147       74.85272
H         37.87142       21.14487       77.89925
H         36.93403       19.89701       76.98967
H         38.69601       20.10694       76.67940
N         35.98758       23.17199       77.18801
C         34.74499       23.85490       77.55513
C         34.25772       24.71620       76.40244
O         33.15708       24.48909       75.91869
C         34.97326       24.69416       78.83832
C         35.19785       23.78042       80.06019
C         35.73401       24.50185       81.26957
O         36.78787       24.13519       81.76279
O         35.06719       25.51844       81.84445
H         36.82644       23.32291       77.76445
H         33.95436       23.10089       77.77032
H         34.10048       25.34658       79.04866
H         35.85133       25.34372       78.66842
H         35.92869       22.98348       79.81093
H         34.23542       23.28603       80.31433
N         35.03857       25.69775       75.88409
C         34.63769       26.48940       74.74166
H         33.71164       27.05513       74.97391
H         35.44311       27.20802       74.47816
H         34.46033       25.82679       73.86663
H         35.95543       25.87278       76.30246
Ca        35.86593       26.36638       83.80714
O         38.76211       26.16056       82.95725
H         39.43359       26.74582       82.52682
H         39.00344       25.24809       82.65978
O         37.31403       24.10935       85.05027
H         37.06998       23.32962       85.60883
H         38.30383       24.11548       85.04527

Ca 1.0



