%chk=holoCaM-CaMKII.loop1.water2.frame37.chk
%nprocshared=20
%mem=10GB
%nosave
#b3lyp/svp scf=(tight,noincore,xqc) Test 
#IOP(5/87=12) Density=Current Pop=(MK,readradii) iop(6/33=2) iop(6/42=6)

holoCaM-CaMKII.loop1.water2.frame37 

   0  1 
C         30.44695       76.82856       33.00778
C         30.90270       76.68412       34.42749
O         31.95041       76.10941       34.65447
H         29.49259       77.39330       32.94517
H         31.21870       77.38565       32.43522
H         30.30174       75.82639       32.55668
N         30.16527       77.19831       35.44193
C         30.59849       77.22140       36.83203
C         30.12388       75.95030       37.53672
O         29.17736       76.00096       38.30537
C         30.09350       78.55875       37.42342
C         30.54704       78.89691       38.80329
O         30.19829       79.95558       39.29022
O         31.23931       78.03564       39.55071
H         29.28686       77.68473       35.20135
H         31.70821       77.27819       36.89641
H         28.98218       78.57568       37.41838
H         30.46335       79.37773       36.76951
N         30.72302       74.75139       37.26245
C         30.30839       73.46212       37.82186
C         30.59880       73.26163       39.30772
O         30.12662       72.26173       39.83307
C         30.90688       72.30959       36.98999
C         30.43391       72.24386       35.51558
C         28.96498       71.80639       35.28393
C         27.88397       72.90677       35.38319
N         26.56821       72.36728       35.03934
H         31.47799       74.74409       36.56622
H         29.22353       73.38967       37.77072
H         30.67210       71.32735       37.45417
H         32.01587       72.42091       37.00083
H         31.05507       71.43742       35.06624
H         30.66184       73.17221       34.94840
H         28.72443       70.94387       35.94356
H         28.91247       71.44612       34.23371
H         28.13926       73.72764       34.67794
H         27.78976       73.35078       36.38124
H         26.30064       71.61940       35.72078
H         25.85889       73.13441       35.08944
H         26.57580       71.97661       34.06994
N         31.30012       74.15327       40.06453
C         31.38107       74.05978       41.52896
C         30.67217       75.24378       42.20138
O         30.64900       75.29446       43.42293
C         32.82521       73.79271       42.03608
C         33.90947       74.74930       41.62895
O         35.05449       74.55338       42.00006
O         33.66306       75.76035       40.79328
H         31.72525       74.96494       39.59831
H         30.81324       73.17341       41.89041
H         33.13497       72.79429       41.65453
H         32.80406       73.72991       43.14627
N         29.96878       76.16423       41.47221
C         29.10411       77.18851       42.04332
C         29.82020       78.31315       42.76034
O         29.14127       79.13026       43.36574
H         29.94810       76.08118       40.45835
H         28.39249       76.69035       42.73556
H         28.50539       77.65537       41.22916
N         31.17561       78.42824       42.74722
C         31.91475       79.43013       43.51560
C         31.80571       80.87730       43.00213
O         32.48192       81.72780       43.56470
C         33.38804       78.97231       43.64267
C         34.16830       78.91876       42.36278
O         33.68408       79.29225       41.31187
O         35.42495       78.44139       42.37983
H         31.71646       77.71620       42.23713
H         31.53067       79.41299       44.55932
H         33.38097       77.94625       44.07232
H         33.92968       79.63389       44.34961
N         30.97534       81.25220       41.98288
C         30.83534       82.63498       41.53573
C         31.82288       83.03775       40.45598
O         31.78195       84.19210       40.05325
H         30.33776       80.56367       41.57472
H         30.91351       83.32576       42.40494
H         29.81922       82.77669       41.10927
N         32.74241       82.16794       39.94515
C         33.73461       82.54721       38.94082
C         33.92838       81.46022       37.88716
O         33.54078       80.31881       38.09382
C         35.08838       82.87605       39.62331
C         35.03197       84.15771       40.46552
O         35.53390       81.79961       40.40877
H         32.77569       81.21553       40.31707
H         33.38608       83.45185       38.39509
H         35.85054       83.06334       38.83623
H         34.92654       81.71369       41.19022
H         34.74514       85.01845       39.82481
H         34.30350       84.06474       41.29741
H         36.03351       84.36309       40.89995
N         34.53450       81.78243       36.70738
C         34.81518       80.84249       35.62472
C         36.31946       80.86277       35.37340
O         36.88339       81.93468       35.19953
C         33.99890       81.21957       34.34906
C         32.47584       81.17370       34.66234
C         34.33805       80.25532       33.18912
C         31.58210       81.64043       33.50946
H         34.80350       82.76738       36.55551
H         34.50691       79.81019       35.90252
H         34.27313       82.25323       34.04219
H         32.25707       81.84454       35.51968
H         32.18036       80.14005       34.95010
H         33.81087       80.53941       32.25681
H         35.42080       80.28369       32.95072
H         34.06020       79.21159       33.45258
H         31.67103       80.98138       32.62299
H         30.52010       81.61318       33.83465
H         31.83633       82.68303       33.22396
N         37.02325       79.69736       35.31539
C         38.47290       79.61749       35.13898
C         38.84679       79.16901       33.73775
O         37.98853       78.84066       32.93239
C         39.08788       78.60237       36.15770
C         39.05154       79.07748       37.60453
O         38.48454       77.33890       36.03619
H         36.49357       78.82120       35.36786
H         38.93801       80.61881       35.27288
H         40.16683       78.45453       35.95031
H         37.64705       77.32815       36.56749
H         38.01122       79.27934       37.90687
H         39.48045       78.28207       38.25527
H         39.66213       79.99587       37.71791
N         40.17124       79.11026       33.41632
C         40.72361       78.53043       32.19497
C         40.27721       77.08481       32.07224
O         39.83880       76.68064       31.00535
C         42.27487       78.58962       32.23054
C         42.79790       80.02779       32.16376
O         42.76002       77.98039       33.40434
H         40.83750       79.44409       34.12753
H         40.37663       79.09362       31.29923
H         42.66032       78.06395       31.32366
H         43.42977       77.29793       33.14181
H         43.90840       80.02020       32.17366
H         42.45744       80.51407       31.22540
H         42.44876       80.63206       33.02662
N         40.30936       76.27135       33.16431
C         39.81528       74.89927       33.19032
C         38.37188       74.83782       32.70861
O         38.08395       74.12549       31.75705
C         39.93297       74.37304       34.65098
C         39.29354       73.00804       34.93336
C         39.95537       71.86647       34.16578
C         39.26610       70.53774       34.49625
N         39.90084       69.43309       33.78214
H         40.66081       76.67421       34.04662
H         40.44140       74.27100       32.52006
H         39.42303       75.08737       35.32967
H         41.00500       74.35321       34.94697
H         38.20790       73.05104       34.69781
H         39.39142       72.80624       36.02374
H         41.02952       71.81207       34.44854
H         39.87567       72.04986       33.07400
H         38.19330       70.59731       34.20411
H         39.31982       70.34611       35.59173
H         39.85774       69.60117       32.75075
H         40.89773       69.34049       34.08473
H         39.39333       68.54670       34.00430
N         37.40946       75.54150       33.35717
C         35.98527       75.45873       33.05196
C         35.59803       76.10236       31.72755
O         34.44165       75.97416       31.34611
C         35.19523       76.14988       34.17437
C         35.35253       75.41700       35.51779
C         34.67169       76.15272       36.62795
O         35.01458       77.28706       36.92019
O         33.70925       75.54332       37.33991
H         37.70819       76.11465       34.15235
H         35.68857       74.38611       33.02030
H         34.12942       76.17825       33.90665
H         35.54508       77.19782       34.25077
H         36.41960       75.31029       35.79616
H         34.91743       74.39795       35.42644
N         36.47023       76.83639       30.98671
C         36.07290       77.47748       29.75273
H         35.23800       78.18545       29.94652
H         36.92733       78.04633       29.32927
H         35.74771       76.71328       29.01576
H         37.43249       76.97431       31.30919
Ca        33.36488       77.44511       39.39205
O         36.42852       78.86078       39.77955
H         37.15430       78.39140       40.26151
H         36.72995       79.80118       39.76427
O         36.67243       75.98884       39.33007
H         35.99770       75.37921       39.71553
H         36.94650       75.54787       38.48857

Ca 1.0



