%chk=holoCaM.loop1.water2.frame20.chk
%nprocshared=20
%mem=10GB
%nosave
#b3lyp/svp scf=(tight,noincore,xqc) Test 
#IOP(5/87=12) Density=Current Pop=(MK,readradii) iop(6/33=2) iop(6/42=6)

holoCaM.loop1.water2.frame20 

   0  1 
C         75.00190        8.66791        4.86649
C         75.74924        8.10097        3.68984
O         76.88887        8.47703        3.47507
H         73.98115        8.23575        4.95013
H         75.55054        8.45026        5.80594
H         74.90028        9.76737        4.74769
N         75.15828        7.18041        2.88322
C         75.77788        6.59491        1.69335
C         76.03926        7.66064        0.62028
O         75.11824        8.39318        0.28779
C         74.83110        5.50780        1.15628
C         75.35215        4.88448       -0.09302
O         74.70305        4.97804       -1.11877
O         76.53331        4.23991       -0.09715
H         74.20458        6.87563        3.13735
H         76.73133        6.09448        1.97668
H         73.83334        5.95554        0.94961
H         74.70099        4.71335        1.92518
N         77.27236        7.78592        0.02921
C         77.62767        8.84339       -0.92451
C         78.04636        8.36008       -2.31634
O         78.23359        9.21745       -3.16864
C         78.77919        9.68918       -0.32698
C         78.42589       10.35392        1.01254
C         77.30131       11.38777        0.86278
C         76.91409       12.01232        2.20407
N         75.84407       12.99200        2.01578
H         78.01135        7.13370        0.30461
H         76.74505        9.48382       -1.11425
H         79.08780       10.48417       -1.03969
H         79.65540        9.02109       -0.16364
H         79.33161       10.86461        1.40648
H         78.14328        9.57199        1.73937
H         76.38939       10.91182        0.45445
H         77.63726       12.18351        0.16233
H         77.79739       12.50908        2.66190
H         76.56034       11.21246        2.89227
H         75.57141       13.38875        2.94306
H         76.17466       13.76713        1.39587
H         75.00740       12.53377        1.58523
N         78.20471        7.04716       -2.64390
C         78.50121        6.58208       -4.01076
C         77.38198        5.67000       -4.52064
O         77.51688        5.10900       -5.59856
C         79.93627        5.98650       -4.14157
C         80.22504        4.90328       -3.16614
O         80.56184        3.78747       -3.52166
O         80.10087        5.21782       -1.87619
H         78.06191        6.34044       -1.90895
H         78.51819        7.43318       -4.72397
H         80.66857        6.79885       -3.94038
H         80.10855        5.62810       -5.17999
N         76.19281        5.58278       -3.85297
C         75.01294        4.89453       -4.34812
C         75.14921        3.39453       -4.37647
O         74.85378        2.78809       -5.39556
H         76.05943        6.10846       -2.97907
H         74.72484        5.29666       -5.34321
H         74.17372        5.11670       -3.65377
N         75.55280        2.72848       -3.26223
C         75.58544        1.27735       -3.13061
C         74.79255        0.80085       -1.90551
O         74.80636       -0.39251       -1.63661
C         77.04767        0.79343       -3.12603
C         77.92916        1.49972       -2.14018
O         77.67521        1.46716       -0.82778
O         78.90122        2.11032       -2.53596
H         75.86908        3.28199       -2.45575
H         75.11548        0.78507       -4.01087
H         77.46347        0.97766       -4.14246
H         77.08325       -0.30227       -2.94835
N         74.02450        1.65096       -1.15637
C         73.18563        1.21754       -0.04659
C         73.92889        0.81429        1.21440
O         73.25436        0.42417        2.15706
H         73.94127        2.63672       -1.42917
H         72.53991        0.37949       -0.38957
H         72.51639        2.05727        0.24200
N         75.28769        0.87721        1.32760
C         76.01548        0.47965        2.53350
C         76.89080        1.60811        3.07116
O         77.03618        2.63886        2.42785
C         76.85091       -0.79496        2.25933
C         75.95374       -2.00890        1.96540
O         77.77364       -0.58478        1.21942
H         75.83012        1.20451        0.52706
H         75.29671        0.23992        3.34712
H         77.42831       -1.05718        3.17104
H         77.30145       -0.70823        0.35445
H         76.58267       -2.90855        1.79798
H         75.28327       -2.20223        2.82942
H         75.33064       -1.83837        1.06171
N         77.44933        1.47957        4.31198
C         78.23120        2.50892        4.99609
C         79.57667        1.91945        5.43304
O         79.62493        0.80566        5.93559
C         77.39898        3.08934        6.18016
C         76.11791        3.76792        5.60531
C         78.22438        4.10547        6.99577
C         75.18521        4.38025        6.64967
H         77.24661        0.61920        4.84413
H         78.43161        3.37030        4.31989
H         77.11067        2.25871        6.86127
H         75.52271        3.01496        5.04719
H         76.40768        4.57247        4.89158
H         77.65591        4.46524        7.87631
H         79.14839        3.64098        7.39623
H         78.49580        4.97872        6.37112
H         75.67328        5.21760        7.18806
H         74.29233        4.79822        6.13660
H         74.85390        3.60705        7.37282
N         80.71356        2.65050        5.26483
C         82.08165        2.20549        5.51311
C         82.73573        3.05009        6.60019
O         82.09703        3.93455        7.15284
C         82.89328        2.35741        4.19044
C         82.35228        1.43333        3.09622
O         82.84548        3.69849        3.76382
H         80.60885        3.60508        4.92528
H         82.10521        1.14452        5.84421
H         83.95370        2.07636        4.36446
H         83.29525        3.76459        2.88174
H         82.40991        0.37605        3.42694
H         81.30250        1.69345        2.85440
H         82.96755        1.54037        2.17737
N         84.03903        2.82959        6.94447
C         84.78774        3.67728        7.87480
C         85.09072        5.06640        7.29511
O         85.62604        5.88689        8.02701
C         86.12510        3.00291        8.27182
C         85.88492        1.69230        9.03482
O         86.89299        2.76604        7.11812
H         84.52042        2.02563        6.51584
H         84.18365        3.80642        8.80160
H         86.67818        3.69171        8.95191
H         87.78218        2.44476        7.41934
H         86.85740        1.24987        9.33714
H         85.29424        1.89122        9.95442
H         85.34238        0.95229        8.41156
N         84.77531        5.40750        6.00948
C         85.00323        6.73014        5.42884
C         83.67668        7.48840        5.30369
O         83.68483        8.65532        4.93977
C         85.71072        6.53572        4.06548
C         86.18193        7.83219        3.38743
C         86.79205        7.53563        2.01025
C         87.28677        8.82323        1.33701
N         87.77666        8.55400       -0.01467
H         84.31725        4.71709        5.40696
H         85.65446        7.32901        6.10149
H         85.01720        5.99123        3.38575
H         86.60825        5.89703        4.22385
H         86.93190        8.33074        4.03967
H         85.33022        8.52010        3.22448
H         86.01160        7.06766        1.36991
H         87.64195        6.82539        2.11124
H         88.10442        9.26687        1.94791
H         86.45422        9.55907        1.27707
H         88.12592        9.44511       -0.43578
H         88.55854        7.86023        0.01229
H         86.99798        8.18554       -0.60852
N         82.49725        6.89253        5.63699
C         81.18898        7.52672        5.61195
C         80.59120        7.54700        7.01658
O         79.47901        8.03371        7.16667
C         80.28290        6.69577        4.68293
C         80.84064        6.61967        3.25689
C         80.22441        5.50501        2.47048
O         80.42139        4.34510        2.77170
O         79.55242        5.75268        1.35610
H         82.49480        5.91203        5.92648
H         81.25243        8.57335        5.24181
H         79.24187        7.08701        4.65157
H         80.24693        5.68413        5.11540
H         81.92828        6.40007        3.26024
H         80.68889        7.60070        2.75670
N         81.25670        7.03114        8.09557
C         80.68527        7.01354        9.42233
H         79.74392        6.42442        9.42057
H         81.39756        6.53606       10.13042
H         80.48498        8.05003        9.76337
H         82.19698        6.62441        7.99908
Ca        79.50760        4.05915       -0.09654
O         82.42579        3.09909       -0.00801
H         82.19325        3.60687       -0.82501
H         83.38737        2.88911       -0.11249
O         80.29473        0.87324        0.41391
H         80.06090        0.26153       -0.32818
H         80.30363        0.29212        1.21482

Ca 1.0



