%chk=holoCaM.loop2.water2.frame128.chk
%nprocshared=20
%mem=10GB
%nosave
#b3lyp/svp scf=(tight,noincore,xqc) Test 
#IOP(5/87=12) Density=Current Pop=(MK,readradii) iop(6/33=2) iop(6/42=6)

holoCaM.loop2.water2.frame128 

   -2  1 
C         15.46841       83.91060       -7.07249
C         16.35719       82.70113       -7.12856
O         16.26221       81.83601       -6.27068
H         14.79184       83.87297       -6.19331
H         16.08287       84.83333       -7.02465
H         14.84454       83.94475       -7.99298
N         17.22481       82.56354       -8.16455
C         18.02839       81.36961       -8.39480
C         19.12269       81.18580       -7.34578
O         19.91736       82.09883       -7.16651
C         18.69736       81.47461       -9.78376
C         19.23952       80.16214      -10.26306
O         19.87556       80.11517      -11.30270
O         18.95138       79.02253       -9.60741
H         17.24353       83.31671       -8.87093
H         17.33336       80.50085       -8.41352
H         19.50566       82.23776       -9.74683
H         17.95903       81.79862      -10.54669
N         19.26648       80.00504       -6.67120
C         20.36057       79.73937       -5.73508
C         21.26380       78.57268       -6.16737
O         22.24320       78.33331       -5.47411
C         19.76962       79.44922       -4.34987
H         18.58124       79.25753       -6.84069
H         21.01382       80.63413       -5.64495
H         20.57592       79.28478       -3.60281
H         19.15302       80.30835       -4.00968
H         19.12676       78.54256       -4.38425
N         20.99040       77.77740       -7.24928
C         21.75970       76.56590       -7.57774
C         22.01962       76.34846       -9.07893
O         22.66472       75.36215       -9.40745
C         21.03801       75.34223       -6.97365
C         19.65278       75.13190       -7.50904
O         19.16521       75.91974       -8.48072
O         18.94269       74.26409       -7.02771
H         20.12096       77.95046       -7.75751
H         22.75484       76.61040       -7.08350
H         20.95569       75.50552       -5.87653
H         21.63239       74.41823       -7.13798
N         21.57766       77.20690      -10.04294
C         21.87403       77.05285      -11.46388
C         21.22577       75.87555      -12.19077
O         21.54277       75.71526      -13.36116
H         21.09165       78.06147       -9.76235
H         22.97689       76.97968      -11.57868
H         21.54627       77.97142      -11.99765
N         20.33232       75.01409      -11.61578
C         19.78664       73.84728      -12.32836
C         18.84493       74.17088      -13.50888
O         18.36470       73.22976      -14.12685
C         19.10480       72.85811      -11.34579
C         17.82012       73.33316      -10.72399
N         17.11035       72.50549       -9.92447
O         17.40259       74.45360      -10.95015
H         20.09061       75.14265      -10.62636
H         20.65184       73.27947      -12.73698
H         19.81799       72.59392      -10.53485
H         18.87185       71.92537      -11.90432
H         17.44207       71.55022       -9.72676
H         16.21677       72.81407       -9.51739
N         18.55347       75.44526      -13.90688
C         17.73727       75.76029      -15.07541
C         16.23580       75.79017      -14.82684
O         15.51437       76.10780      -15.75943
H         19.01417       76.23304      -13.44316
H         17.99233       75.07742      -15.91606
H         18.00160       76.78736      -15.40770
N         15.69140       75.50031      -13.61076
C         14.25988       75.57638      -13.31117
C         14.00330       76.49280      -12.11570
O         14.93625       76.97560      -11.49565
C         13.71989       74.15372      -12.98700
C         13.74835       73.24046      -14.21157
O         14.46755       73.55791      -11.95634
H         16.31211       75.20736      -12.85579
H         13.69064       75.98498      -14.17431
H         12.64726       74.19784      -12.68956
H         14.14860       73.94609      -11.10017
H         13.11764       73.67021      -15.01947
H         14.78345       73.10504      -14.58657
H         13.33288       72.24516      -13.94192
N         12.71796       76.69239      -11.70120
C         12.34252       77.31606      -10.43812
C         11.86067       76.19373       -9.53541
O         11.05353       75.37143       -9.94078
C         11.29641       78.45668      -10.64321
C         12.03303       79.71295      -11.18548
C         10.56862       78.79335       -9.32255
C         11.13568       80.92024      -11.46512
H         11.95613       76.27018      -12.25079
H         13.22193       77.76849       -9.92977
H         10.51864       78.11563      -11.36103
H         12.56157       79.45170      -12.12666
H         12.79071       80.03727      -10.43850
H         10.02267       77.90718       -8.93690
H         11.28464       79.14020       -8.55147
H          9.79210       79.56739       -9.47543
H         10.64403       81.28873      -10.54150
H         11.76041       81.75546      -11.84780
H         10.36807       80.66588      -12.22326
N         12.34820       76.12731       -8.26848
C         12.08915       75.04580       -7.32804
C         11.04076       75.50026       -6.34301
O         10.53055       76.59429       -6.48386
C         13.39501       74.73738       -6.56566
C         14.56018       74.47306       -7.46521
O         14.87304       75.38317       -8.40364
O         15.29490       73.52017       -7.26394
H         12.94192       76.89882       -7.93693
H         11.72558       74.13807       -7.85588
H         13.26996       73.89548       -5.85241
H         13.66630       75.64252       -5.97671
N         10.65412       74.69870       -5.31366
C          9.66232       75.14018       -4.34491
C         10.14102       76.34773       -3.52841
O          9.42365       77.34364       -3.54687
C          9.21237       73.97177       -3.44736
C          8.11631       74.41323       -2.50672
C          6.89960       74.91363       -3.00968
C          8.30653       74.34374       -1.11779
C          5.90023       75.34738       -2.13682
C          7.30053       74.77418       -0.24794
C          6.10026       75.27837       -0.75671
H         11.05291       73.75331       -5.23516
H          8.76084       75.44145       -4.92106
H         10.07386       73.56298       -2.88700
H          8.82175       73.15033       -4.08668
H          6.72222       74.97693       -4.07578
H          9.23392       73.96292       -0.70859
H          4.97183       75.73905       -2.53240
H          7.45373       74.72047        0.82141
H          5.32482       75.61586       -0.08225
N         11.30188       76.38750       -2.79239
C         11.70099       77.52426       -1.96635
C         12.17010       78.73912       -2.76594
O         12.54997       79.72272       -2.15023
C         12.81648       76.94971       -1.08936
C         13.48213       75.97923       -2.03632
C         12.27447       75.31178       -2.69266
H         10.87281       77.84991       -1.29721
H         13.47961       77.69912       -0.60632
H         12.34633       76.33710       -0.28539
H         14.02068       76.58198       -2.80347
H         14.20129       75.27220       -1.57128
H         12.59527       74.90857       -3.67170
H         11.86354       74.51392       -2.04229
N         12.12306       78.76333       -4.12637
C         12.45591       79.92929       -4.93283
C         11.16043       80.59293       -5.36233
O         11.01104       81.78851       -5.15010
C         13.30793       79.50078       -6.14116
C         14.62858       78.84654       -5.69789
C         15.47709       78.37387       -6.84352
O         15.12885       78.52814       -8.00325
O         16.63890       77.75120       -6.57777
H         11.77597       77.94256       -4.63140
H         13.04370       80.67570       -4.35244
H         13.53125       80.39023       -6.77140
H         12.72913       78.77811       -6.74760
H         14.40977       77.96166       -5.06446
H         15.21925       79.57325       -5.10067
N         10.14819       79.85817       -5.90142
C          8.84878       80.38890       -6.25027
H          8.07802       79.90071       -5.61480
H          8.78578       81.48564       -6.10162
H          8.62915       80.15387       -7.31126
H         10.27611       78.85249       -6.03100
Ca        16.98208       75.89867       -8.74088
O         17.67368       77.80917      -11.95753
H         17.20440       78.33223      -12.65452
H         18.63139       78.00403      -12.10962
O         15.97928       79.83655      -10.67144
H         15.05459       79.59600      -10.42132
H         15.88157       80.64240      -11.23699

Ca 1.0



