%chk=holoCaM.loop4.water3.frame428.chk
%nprocshared=20
%mem=10GB
%nosave
#b3lyp/svp scf=(tight,noincore,xqc) Test 
#IOP(5/87=12) Density=Current Pop=(MK,readradii) iop(6/33=2) iop(6/42=6)

holoCaM.loop4.water3.frame428 

   -3  1 
C         17.94576       76.65696       45.58645
C         18.53363       75.64004       46.51005
O         17.88698       75.28321       47.48196
H         16.93846       76.96966       45.93778
H         18.60915       77.54105       45.52515
H         17.83603       76.19996       44.57924
N         19.73835       75.07271       46.22113
C         20.26016       73.93605       46.95753
C         21.74856       74.08593       47.27901
O         22.52145       74.31130       46.35898
C         20.02001       72.68345       46.08129
C         20.23987       71.43563       46.86061
O         20.04996       70.33774       46.36780
O         20.57539       71.57302       48.14439
H         20.22291       75.35801       45.35743
H         19.68249       73.80066       47.90222
H         20.65715       72.70753       45.17380
H         18.95120       72.66329       45.77447
N         22.22753       73.89693       48.54975
C         23.64773       73.94560       48.89955
C         24.11403       72.55385       49.35281
O         24.98408       71.99198       48.70152
C         23.89914       75.05473       49.97278
C         23.38452       76.45204       49.52154
C         25.38169       75.13680       50.38637
C         24.09408       77.05274       48.30213
H         21.56435       73.67526       49.30343
H         24.25322       74.20663       48.00517
H         23.31924       74.79529       50.88581
H         23.50235       77.16650       50.36608
H         22.29752       76.38953       49.30021
H         25.71738       74.18310       50.84270
H         26.03344       75.35073       49.51406
H         25.52514       75.93956       51.14273
H         23.97764       76.40906       47.40837
H         23.64733       78.04294       48.07097
H         25.17293       77.21284       48.50406
N         23.60378       71.94727       50.46769
C         24.07746       70.64859       50.97391
C         23.72363       69.43332       50.10125
O         24.18826       68.34926       50.42906
C         23.60168       70.42676       52.43977
C         22.11198       70.42313       52.65327
O         21.27245       70.53081       51.62235
O         21.65639       70.30198       53.77686
H         22.91264       72.47282       51.02171
H         25.18872       70.69368       51.02626
H         24.02313       71.24026       53.06549
H         24.00101       69.46019       52.81964
N         22.91962       69.50794       48.99898
C         22.58541       68.35061       48.16718
C         21.77698       67.25610       48.86482
O         21.57156       66.22022       48.24802
H         22.55929       70.42089       48.70864
H         23.53563       67.90525       47.79708
H         22.00812       68.68429       47.27879
N         21.32446       67.38231       50.14611
C         20.72411       66.28302       50.90642
C         19.36553       65.77713       50.41594
O         18.95075       64.73171       50.89807
C         20.63285       66.65151       52.41074
C         19.80059       67.86745       52.73355
O         19.31631       68.55597       51.85434
O         19.62437       68.22675       54.01804
H         21.51040       68.25986       50.63982
H         21.42708       65.42421       50.83147
H         21.65684       66.84672       52.79447
H         20.21602       65.78689       52.96817
N         18.58860       66.46171       49.53221
C         17.27056       65.99346       49.10439
C         16.12315       66.69558       49.81687
O         14.98082       66.39018       49.50660
H         18.91365       67.37516       49.20209
H         17.14926       64.90685       49.30585
H         17.18438       66.12541       48.00403
N         16.34289       67.60740       50.80720
C         15.29690       68.28059       51.57293
C         15.41137       69.78647       51.39668
O         16.30253       70.23262       50.68572
C         15.44096       67.92837       53.07049
C         15.34152       66.41876       53.34327
C         15.32819       66.09420       54.82108
N         15.24934       64.80652       55.22662
O         15.37557       66.98471       55.65847
H         17.30469       67.83301       51.05760
H         14.28828       67.96551       51.22795
H         14.62638       68.43161       53.63210
H         16.41676       68.30136       53.45735
H         16.20420       65.90189       52.86894
H         14.40130       66.02774       52.89945
H         15.20970       64.04032       54.53900
H         15.22650       64.57499       56.23112
N         14.54638       70.63801       52.03058
C         14.64393       72.08849       51.91182
C         14.92689       72.68718       53.28066
O         14.08340       72.59544       54.16260
C         13.34300       72.69507       51.31066
C         13.53543       74.18818       50.99315
C         12.90633       71.96678       50.03305
H         13.79571       70.25143       52.62187
H         15.47707       72.34880       51.22531
H         12.51389       72.58684       52.04577
H         12.59928       74.62668       50.58848
H         13.79704       74.75299       51.90435
H         14.34558       74.32709       50.24371
H         13.69721       72.01878       49.25622
H         12.67946       70.90222       50.25293
H         11.97511       72.42678       49.63668
N         16.10591       73.32454       53.52340
C         16.39069       74.04366       54.76279
C         15.67068       75.38210       54.72329
O         15.14059       75.73124       53.68754
C         17.92990       74.19466       54.89553
C         18.43000       74.99404       56.07269
N         18.11751       74.65328       57.34305
O         19.15500       75.95653       55.87101
H         16.80443       73.35795       52.76997
H         16.01878       73.44861       55.62571
H         18.32805       74.66391       53.96843
H         18.36333       73.17457       54.97240
H         17.51123       73.84581       57.54202
H         18.47636       75.21309       58.13079
N         15.56790       76.17306       55.82122
C         14.93516       77.49305       55.79574
C         15.74454       78.47520       54.95995
O         15.15278       79.24036       54.21074
C         14.65344       77.99281       57.23070
C         15.86772       78.04736       58.12414
C         16.04455       77.06051       59.10946
C         16.82709       79.06283       57.99083
C         17.17286       77.07326       59.92849
C         17.95374       79.07858       58.81764
C         18.13247       78.07869       59.78574
O         19.21861       78.07354       60.58302
H         15.92986       75.80791       56.70989
H         13.92347       77.40639       55.33618
H         13.93267       77.25952       57.65690
H         14.13212       78.97507       57.22722
H         15.31813       76.26553       59.22978
H         16.70313       79.84356       57.25146
H         17.30195       76.29516       60.66999
H         18.68704       79.86612       58.70283
H         19.90783       78.74895       60.51610
N         17.11069       78.47785       55.00451
C         17.94716       79.39167       54.22216
C         17.85730       79.13105       52.70614
O         18.43532       79.88085       51.93318
C         19.41316       79.28187       54.71956
C         20.29487       80.49589       54.38060
C         19.77633       81.74111       55.05185
O         19.64805       81.78179       56.39325
O         19.46138       82.71485       54.38745
H         17.56736       77.82227       55.65154
H         17.57869       80.41518       54.44688
H         19.86771       78.34366       54.33046
H         19.41492       79.20928       55.82990
H         20.36819       80.64323       53.28421
H         21.31990       80.30709       54.76562
N         17.11953       78.09341       52.21932
C         16.90798       77.76780       50.81716
C         15.48730       78.15898       50.44147
O         15.30502       78.86882       49.46246
C         17.12260       76.25126       50.61561
C         18.57617       75.82854       50.89286
C         18.77638       74.33978       50.80437
O         19.86851       73.86416       51.06388
O         17.76539       73.51781       50.46907
H         16.64076       77.48011       52.87962
H         17.60460       78.32359       50.14903
H         16.84900       75.97382       49.57895
H         16.44534       75.69361       51.29943
H         18.86015       76.14210       51.91893
H         19.25423       76.32625       50.16510
N         14.43133       77.77030       51.20756
C         13.06573       78.14870       50.93482
H         12.40666       77.75921       51.74245
H         12.97478       79.25503       50.91511
H         12.73885       77.71654       49.96795
H         14.59486       77.21172       52.04440
Ca        19.80235       70.69596       49.99667
O         18.39417       71.35881       52.82565
H         19.25892       71.62356       53.22721
H         18.16143       70.50536       53.26826
O         18.01975       69.42034       48.20755
H         18.58408       68.88081       47.60131
H         17.09752       69.25489       47.89543
O         16.98558       71.97175       48.25807
H         16.13080       71.76512       47.80540
H         17.22061       72.87837       47.94484

Ca 1.0



