%chk=holoCaM-CaMKII.loop2.water0.frame106.chk
%nprocshared=20
%mem=10GB
%nosave
#b3lyp/svp scf=(tight,noincore,xqc) Test 
#IOP(5/87=12) Density=Current Pop=(MK,readradii) iop(6/33=2) iop(6/42=6)

holoCaM-CaMKII.loop2.water0.frame106 

   -2  1 
C         15.09414       37.96235       44.65170
C         14.47941       37.30450       43.45380
O         14.68353       37.76709       42.34120
H         15.70016       38.84313       44.35197
H         14.29504       38.29048       45.34834
H         15.75467       37.23612       45.17208
N         13.72110       36.18783       43.61576
C         13.13843       35.45215       42.50185
C         12.09306       36.29794       41.78539
O         11.18686       36.79411       42.44029
C         12.52054       34.13671       43.01546
C         12.18033       33.16323       41.92128
O         12.41409       33.40245       40.74941
O         11.66792       31.97315       42.25225
H         13.59463       35.82512       44.57438
H         13.96475       35.16898       41.81978
H         11.61939       34.35324       43.63005
H         13.26360       33.61743       43.65894
N         12.14736       36.47907       40.43412
C         11.21032       37.30421       39.68099
C         10.28217       36.48576       38.78824
O          9.39104       37.08126       38.19856
C         12.00478       38.31513       38.84735
H         12.88412       36.00346       39.90829
H         10.55285       37.86273       40.38127
H         12.64882       38.93176       39.50972
H         12.65700       37.78352       38.11893
H         11.32343       38.98973       38.28767
N         10.39860       35.13131       38.65561
C          9.46354       34.30348       37.89755
C          8.76232       33.27102       38.79444
O          7.95014       32.51513       38.27945
C         10.17582       33.69263       36.67099
C         11.38078       32.86519       37.00440
O         11.24928       31.75086       37.73458
O         12.48287       33.18509       36.58836
H         11.17632       34.64678       39.11472
H          8.64440       34.92663       37.47611
H         10.49849       34.53116       36.01443
H          9.45913       33.07217       36.09030
N          8.94724       33.24142       40.15172
C          8.15447       32.42151       41.06337
C          8.43299       30.92777       41.05905
O          7.78258       30.23439       41.82871
H          9.58688       33.91594       40.59317
H          7.07618       32.60305       40.86366
H          8.36033       32.76498       42.10120
N          9.37586       30.34891       40.26451
C          9.66718       28.91057       40.27850
C         10.36567       28.41220       41.55801
O         10.69825       27.23555       41.60669
C         10.48224       28.51063       39.02038
C         11.84372       29.14522       38.86322
N         12.61568       28.80938       37.80500
O         12.25095       29.97184       39.66369
H          9.87544       30.94500       39.59647
H          8.70671       28.35695       40.17861
H          9.88462       28.77102       38.11950
H         10.61370       27.40660       39.02332
H         12.28760       28.12011       37.11278
H         13.54357       29.23755       37.67744
N         10.60878       29.21653       42.63550
C         11.28369       28.77161       43.84918
C         12.78232       28.54090       43.69775
O         13.40387       28.18428       44.68720
H         10.25414       30.17529       42.64064
H         10.78584       27.85515       44.23376
H         11.17187       29.56357       44.62201
N         13.43469       28.73527       42.51546
C         14.87128       28.54205       42.31745
C         15.51839       29.83812       41.82688
O         14.83719       30.84639       41.71312
C         15.09827       27.37378       41.32426
C         14.55215       26.05762       41.88544
O         14.48056       27.63598       40.09124
H         12.89647       29.02502       41.69839
H         15.37346       28.27096       43.27192
H         16.18773       27.20074       41.17182
H         15.10516       28.20470       39.57003
H         13.45570       26.11733       42.04975
H         14.75638       25.23011       41.17372
H         15.04800       25.81847       42.85118
N         16.85241       29.87270       41.52739
C         17.56935       31.07126       41.10040
C         18.08405       30.91684       39.67255
O         18.77960       29.96067       39.36758
C         18.72877       31.38304       42.10311
C         18.11492       31.87290       43.44324
C         19.70114       32.43894       41.53781
C         19.14081       32.23094       44.52132
H         17.40470       29.00891       41.61930
H         16.90369       31.95640       41.10865
H         19.32628       30.45934       42.26990
H         17.45365       31.07931       43.85059
H         17.49424       32.77843       43.25639
H         19.16461       33.38702       41.34752
H         20.55137       32.62362       42.22264
H         20.17145       32.08030       40.59932
H         19.78632       31.35825       44.74915
H         19.77004       33.09203       44.21453
H         18.60749       32.53991       45.44455
N         17.87361       31.94337       38.79395
C         18.50810       32.08321       37.49222
C         19.55615       33.19254       37.62541
O         19.67262       33.76358       38.69578
C         17.45719       32.40302       36.40212
C         16.52917       31.24213       36.09703
O         16.60017       30.70474       35.00331
O         15.59430       30.80121       36.97021
H         17.35463       32.76652       39.11681
H         19.05519       31.15693       37.21460
H         18.01047       32.63445       35.46595
H         16.86638       33.30778       36.66760
N         20.41307       33.50830       36.61037
C         21.53101       34.42919       36.82991
C         21.09110       35.83215       37.25143
O         21.59292       36.27974       38.27655
C         22.50085       34.47363       35.62753
C         23.73713       35.28028       35.96823
C         24.02790       36.46979       35.27884
C         24.60586       34.85322       36.99148
C         25.16084       37.21973       35.61336
C         25.73632       35.60504       37.32075
C         26.01321       36.78832       36.63350
H         20.32773       33.02175       35.70768
H         22.12465       33.99988       37.66714
H         22.00203       34.89375       34.73760
H         22.82013       33.44249       35.36370
H         23.37467       36.82259       34.49087
H         24.41095       33.93872       37.53712
H         25.37713       38.13804       35.08352
H         26.39651       35.26991       38.11068
H         26.88832       37.37029       36.89215
N         20.18289       36.59780       36.56494
C         19.75389       37.93338       36.97646
C         19.41881       38.03795       38.45310
O         19.85100       38.96636       39.11831
C         18.47373       38.15995       36.15547
C         18.80067       37.44181       34.87224
C         19.44703       36.16080       35.38979
H         20.53696       38.67230       36.69286
H         17.61896       37.60314       36.60546
H         18.17410       39.22427       36.05101
H         17.94455       37.27874       34.18319
H         19.57673       38.04401       34.34722
H         18.68776       35.41335       35.70844
H         20.07197       35.75070       34.57952
N         18.63218       37.08333       39.01085
C         18.15686       37.08242       40.39004
C         19.33536       37.02353       41.34541
O         19.46325       37.90796       42.18149
C         17.17759       35.89418       40.57492
C         15.95169       36.05967       39.63640
C         15.15859       34.80696       39.42866
O         14.36155       34.76130       38.50481
O         15.40255       33.68835       40.12557
H         18.36296       36.30184       38.39696
H         17.58113       38.01445       40.58780
H         16.82938       35.80724       41.62731
H         17.72490       34.96432       40.31214
H         16.28906       36.31254       38.61531
H         15.30367       36.89791       39.96321
N         20.26417       36.03391       41.25271
C         21.42772       35.97583       42.11080
H         22.04028       36.89404       41.98070
H         21.11723       35.88191       43.17241
H         22.05276       35.09714       41.84190
H         20.16058       35.31100       40.53126
Ca        15.01428       31.87795       38.85923

Ca 1.0



