%chk=holoCaM-CaMKII.loop4.water1.frame448.chk
%nprocshared=20
%mem=10GB
%nosave
#b3lyp/svp scf=(tight,noincore,xqc) Test 
#IOP(5/87=12) Density=Current Pop=(MK,readradii) iop(6/33=2) iop(6/42=6)

holoCaM-CaMKII.loop4.water1.frame448 

   -3  1 
C         62.92987       69.07930       15.23538
C         62.30985       70.43702       15.33339
O         61.15618       70.54537       15.72371
H         63.82208       69.03728       15.89615
H         62.21089       68.29667       15.55669
H         63.23955       68.88554       14.18802
N         63.04549       71.53740       15.02563
C         62.52492       72.88508       15.17987
C         61.43913       73.15977       14.15112
O         61.69816       72.99307       12.96658
C         63.65890       73.90966       15.03487
C         63.27139       75.23757       15.60579
O         64.07370       76.15214       15.56694
O         62.10433       75.40785       16.26367
H         64.02827       71.40535       14.73701
H         62.13942       72.96682       16.22140
H         63.97356       74.00109       13.97165
H         64.54002       73.57966       15.62770
N         60.20587       73.59928       14.53000
C         59.09498       73.76384       13.59397
C         58.95748       75.20637       13.10258
O         58.39464       75.37809       12.02975
C         57.76609       73.21692       14.21830
C         57.95649       71.75744       14.71656
C         56.58957       73.30679       13.22294
C         56.73955       71.18091       15.44627
H         60.03886       73.76951       15.52804
H         59.31407       73.15473       12.68755
H         57.51631       73.84875       15.09947
H         58.78974       71.73024       15.44762
H         58.22000       71.09386       13.86489
H         56.79434       72.69208       12.32073
H         55.64145       72.96945       13.68428
H         56.39822       74.35351       12.91701
H         55.86913       71.07111       14.76968
H         56.98758       70.16968       15.83191
H         56.46058       71.82645       16.30505
N         59.42160       76.28777       13.80343
C         59.23316       77.66777       13.33353
C         60.54880       78.39299       13.03381
O         60.49256       79.52905       12.58363
C         58.29066       78.44045       14.28646
C         58.80572       78.69459       15.67217
O         59.92751       78.35751       15.99886
O         58.01688       79.32330       16.56419
H         59.88819       76.13580       14.70843
H         58.69415       77.66175       12.36157
H         57.34446       77.86157       14.37187
H         58.04365       79.42550       13.83525
N         61.75875       77.77309       13.15422
C         63.00367       78.32967       12.64038
C         63.52836       79.55562       13.35897
O         63.74916       80.56793       12.70996
H         61.80149       76.80795       13.50986
H         62.87683       78.54930       11.55697
H         63.79361       77.55238       12.72543
N         63.83314       79.50212       14.68512
C         64.54122       80.56938       15.41061
C         65.85430       80.07484       16.03593
O         66.58574       80.90542       16.55699
C         63.61332       81.25182       16.45621
C         63.02026       80.31629       17.47381
O         62.13833       80.69049       18.22910
O         63.38801       79.03426       17.45033
H         63.57522       78.63786       15.17525
H         64.83562       81.36762       14.69492
H         62.76783       81.69823       15.89052
H         64.15183       82.07257       16.97697
N         66.22826       78.75856       16.02379
C         67.49086       78.25799       16.54772
C         67.31791       77.35862       17.75639
O         68.29668       76.74189       18.15048
H         65.61089       78.05102       15.61381
H         68.18374       79.07659       16.83648
H         67.98064       77.67895       15.73427
N         66.13670       77.28228       18.43889
C         65.95165       76.47401       19.64138
C         64.75921       75.55076       19.50716
O         64.02954       75.64847       18.53397
C         65.87217       77.39899       20.88202
C         64.81822       78.53108       20.89765
C         63.39017       78.08164       21.09531
N         62.72619       78.39802       22.23167
O         62.81258       77.45674       20.22256
H         65.34907       77.86083       18.13339
H         66.83487       75.81678       19.79449
H         66.85927       77.90964       20.93165
H         65.77302       76.79584       21.81009
H         64.89436       79.16928       19.99196
H         65.08685       79.18013       21.75885
H         63.18373       78.92755       22.98776
H         61.74698       78.10996       22.35947
N         64.52339       74.59137       20.44865
C         63.37038       73.69857       20.40394
C         62.67768       73.75582       21.75817
O         63.25506       73.27224       22.72291
C         63.83769       72.25066       20.05818
C         62.66275       71.26465       19.99126
C         64.58627       72.21408       18.71460
H         65.20235       74.47322       21.21569
H         62.66109       74.02541       19.61294
H         64.54000       71.89987       20.84692
H         63.03359       70.23964       19.77417
H         62.12665       71.22686       20.95963
H         61.95686       71.55566       19.18663
H         65.48584       72.86322       18.74240
H         64.92880       71.18079       18.49082
H         63.92522       72.55428       17.89095
N         61.45934       74.35759       21.92490
C         60.79218       74.37988       23.22875
C         60.14783       73.03140       23.50760
O         60.27869       72.13945       22.68702
C         59.81791       75.57789       23.41481
C         58.44619       75.50598       22.78450
N         58.26187       75.58480       21.45176
O         57.46818       75.43767       23.51409
H         61.02777       74.82861       21.12338
H         61.57223       74.57506       23.99835
H         60.31556       76.51994       23.11521
H         59.64432       75.66163       24.50997
H         59.05301       75.69767       20.81129
H         57.30669       75.57105       21.06273
N         59.43849       72.79804       24.64509
C         58.79508       71.51480       24.92068
C         57.73079       71.19341       23.87174
O         57.73744       70.09553       23.33288
C         58.17455       71.52571       26.33437
C         57.72376       70.14793       26.76491
C         58.66377       69.10806       26.89489
C         56.37505       69.88901       27.05677
C         58.26167       67.83426       27.30131
C         55.97467       68.61133       27.46518
C         56.91818       67.57978       27.58800
O         56.54812       66.34474       27.98232
H         59.35876       73.55411       25.34114
H         59.58160       70.72929       24.90674
H         57.33655       72.25690       26.36340
H         58.93856       71.86137       27.06941
H         59.71215       69.28137       26.68738
H         55.63381       70.67319       26.96922
H         58.99768       67.04529       27.39627
H         54.93198       68.42435       27.68752
H         55.63008       66.12494       28.19461
N         56.80364       72.13287       23.51775
C         55.73022       71.93004       22.53308
C         56.21599       71.59220       21.11695
O         55.37144       71.31456       20.27627
C         54.83923       73.19339       22.45155
C         54.10124       73.48980       23.76713
C         53.32709       74.77138       23.65843
O         52.11315       74.77200       23.78329
O         53.97498       75.93236       23.43954
H         56.86596       73.04221       23.99408
H         55.10519       71.07476       22.87317
H         54.06473       73.06180       21.66299
H         55.47865       74.05685       22.16339
H         54.80686       73.59686       24.61500
H         53.41353       72.64453       23.99156
N         57.53471       71.55483       20.78112
C         58.04084       71.13449       19.47905
C         58.68367       69.76772       19.63918
O         58.29628       68.85371       18.92468
C         59.01130       72.19275       18.91035
C         58.27851       73.51926       18.65734
C         59.17606       74.58608       18.09536
O         58.86182       75.17083       17.07230
O         60.30433       74.94036       18.73480
H         58.23266       71.79655       21.48634
H         57.21724       71.01589       18.73958
H         59.43792       71.82698       17.95081
H         59.84147       72.36201       19.62998
H         57.86624       73.87655       19.61479
H         57.42852       73.35592       17.96068
N         59.61086       69.53245       20.61029
C         60.17190       68.22661       20.89088
H         61.27813       68.27767       20.83446
H         59.88150       67.92284       21.92052
H         59.81087       67.44803       20.18752
H         59.90398       70.29832       21.22356
Ca        61.98102       77.32591       17.38700
O         59.43972       78.09907       19.58823
H         59.66113       78.52210       18.72179
H         58.71298       78.65993       19.95899

Ca 1.0



