%chk=holoCaM.loop4.water3.frame457.chk
%nprocshared=20
%mem=10GB
%nosave
#b3lyp/svp scf=(tight,noincore,xqc) Test 
#IOP(5/87=12) Density=Current Pop=(MK,readradii) iop(6/33=2) iop(6/42=6)

holoCaM.loop4.water3.frame457 

   -3  1 
C         30.43458       60.26339       65.51254
C         30.69332       59.44899       66.74454
O         29.73470       59.02278       67.37111
H         29.84362       61.16456       65.77679
H         31.38124       60.58251       65.02910
H         29.85878       59.65084       64.78630
N         31.96898       59.19111       67.15449
C         32.28293       58.35905       68.31198
C         33.77905       58.37698       68.59597
O         34.57556       58.15069       67.69555
C         31.80253       56.90810       68.09638
C         32.08802       56.06568       69.30430
O         32.77086       55.05943       69.20443
O         31.60208       56.43057       70.50597
H         32.74535       59.60550       66.61599
H         31.74984       58.77013       69.19917
H         32.29186       56.47055       67.19938
H         30.70601       56.88249       67.93974
N         34.21274       58.57999       69.86947
C         35.61148       58.64097       70.27058
C         35.99946       57.36087       70.99934
O         37.04337       56.80709       70.68326
C         35.84607       59.89168       71.18734
C         35.46135       61.20200       70.44881
C         37.30978       59.95367       71.67814
C         35.52177       62.45614       71.33161
H         33.50414       58.67044       70.61027
H         36.27847       58.74072       69.38384
H         35.19349       59.79157       72.08309
H         34.41715       61.11770       70.08971
H         36.11662       61.34738       69.56284
H         37.46631       60.79402       72.38336
H         37.58167       59.03712       72.24079
H         38.00595       60.06774       70.82028
H         36.55490       62.67431       71.66926
H         35.17418       63.33647       70.75043
H         34.86208       62.33986       72.21795
N         35.24790       56.87830       72.03024
C         35.72269       55.84867       72.95727
C         34.89000       54.56713       73.01981
O         35.29553       53.67834       73.75749
C         35.82981       56.49361       74.35640
C         34.55744       57.18013       74.75825
O         33.51558       56.55556       74.80623
O         34.55495       58.50534       74.99654
H         34.34560       57.33327       72.22984
H         36.74240       55.51003       72.67327
H         36.63052       57.26263       74.33347
H         36.10353       55.73413       75.11900
N         33.75832       54.35825       72.29160
C         33.01985       53.09880       72.35452
C         32.45108       52.85999       73.73914
O         32.80388       51.88229       74.38260
H         33.42173       55.09406       71.66086
H         33.69221       52.26332       72.05888
H         32.17558       53.12311       71.63196
N         31.55164       53.74343       74.24481
C         30.94225       53.66449       75.57752
C         29.41891       53.56144       75.53303
O         28.80943       53.53281       76.59444
C         31.34448       54.89252       76.42890
C         30.96555       56.23612       75.84836
O         30.45145       56.33687       74.60174
O         31.22730       57.24161       76.48338
H         31.30387       54.51897       73.62154
H         31.31245       52.76499       76.11760
H         32.44738       54.88158       76.57222
H         30.88534       54.79774       77.43701
N         28.72854       53.48786       74.36116
C         27.27771       53.39316       74.29126
C         26.52656       54.67525       74.63667
O         25.30979       54.65448       74.52962
H         29.24472       53.43250       73.47463
H         26.92980       52.55375       74.93240
H         27.00296       53.14931       73.24255
N         27.15434       55.82450       75.02604
C         26.46246       57.08967       75.28823
C         26.99259       58.18076       74.36890
O         27.84131       57.89683       73.54074
C         26.64970       57.49248       76.76471
C         25.95535       56.50230       77.70814
C         25.97355       57.00359       79.12892
N         27.13933       57.18741       79.78971
O         24.91628       57.25002       79.69058
H         28.17184       55.82511       75.13778
H         25.37254       57.00410       75.08836
H         26.17728       58.48217       76.93467
H         27.73219       57.58144       77.00692
H         26.43798       55.50349       77.65173
H         24.89461       56.39761       77.38744
H         28.04155       56.98071       79.33831
H         27.13740       57.53624       80.75984
N         26.51489       59.46085       74.45076
C         27.00069       60.55557       73.61618
C         27.57013       61.65045       74.51163
O         26.81313       62.28426       75.23372
C         25.83602       61.09272       72.73425
C         26.26749       62.28070       71.86301
C         25.27327       59.98474       71.83060
H         25.76978       59.67685       75.12797
H         27.80821       60.19790       72.94057
H         25.01445       61.44038       73.40016
H         26.60514       63.12262       72.49810
H         27.08631       61.98821       71.17251
H         25.40763       62.64912       71.26335
H         26.05548       59.61072       71.13564
H         24.89550       59.13484       72.43651
H         24.42059       60.37480       71.23433
N         28.90969       61.91741       74.52222
C         29.50132       63.00336       75.30723
C         29.18891       64.33874       74.64942
O         28.62766       64.36292       73.56886
C         31.03591       62.77660       75.41091
C         31.82752       63.72407       76.27420
N         31.55053       63.85593       77.59112
O         32.76658       64.33822       75.79224
H         29.53036       61.31685       73.96231
H         29.08063       62.96891       76.33561
H         31.47380       62.75220       74.38767
H         31.18861       61.80540       75.89662
H         30.78078       63.32792       78.02530
H         32.12028       64.47744       78.18199
N         29.52875       65.50106       75.25722
C         29.40451       66.81937       74.63466
C         30.32200       66.95150       73.41374
O         29.86034       67.44902       72.39567
C         29.56021       67.94405       75.69627
C         30.70263       67.75001       76.67002
C         30.41660       67.37517       77.99821
C         32.03707       67.89731       76.27873
C         31.44693       67.12145       78.90282
C         33.07174       67.64461       77.18781
C         32.77809       67.24538       78.50034
O         33.76241       66.97065       79.37909
H         29.90190       65.43085       76.21001
H         28.36399       66.95576       74.25902
H         28.61915       67.90069       76.28938
H         29.58190       68.95183       75.22884
H         29.39285       67.24864       78.32964
H         32.27097       68.20035       75.27047
H         31.20774       66.81093       79.91240
H         34.10078       67.74900       76.87066
H         34.69742       67.01572       79.13516
N         31.59817       66.46036       73.40690
C         32.48592       66.50533       72.23485
C         31.99906       65.64818       71.05870
O         32.66834       65.64842       70.03410
C         33.91592       66.01974       72.60216
C         34.62616       66.87408       73.66394
C         34.79388       68.30343       73.22722
O         35.43010       68.56840       72.21963
O         34.25001       69.30060       73.95011
H         31.94879       66.03730       74.27264
H         32.55674       67.55800       71.88447
H         34.55767       66.03199       71.69269
H         33.86570       64.96778       72.96164
H         35.63323       66.44512       73.85477
H         34.06660       66.82991       74.61468
N         30.86752       64.89117       71.12206
C         30.40252       64.01317       70.05582
C         29.11363       64.57268       69.48559
O         29.07177       64.86729       68.29887
C         30.23262       62.57892       70.61691
C         31.57928       62.05015       71.14221
C         31.51933       60.70441       71.81026
O         32.53838       60.25110       72.30313
O         30.37379       60.00766       71.93302
H         30.30366       64.90485       71.97228
H         31.14099       63.96859       69.22346
H         29.85324       61.90031       69.82144
H         29.49758       62.59175       71.45090
H         31.97511       62.75569       71.90301
H         32.29614       62.00270       70.29740
N         28.03059       64.78955       70.27868
C         26.81026       65.38808       69.78665
H         26.07600       65.47965       70.61600
H         27.02236       66.40549       69.39330
H         26.37056       64.75914       68.98544
H         28.07541       64.54496       71.27173
Ca        30.48580       58.11595       73.18869
O         31.39849       59.72083       75.02716
H         32.17599       59.20111       75.33746
H         30.67272       59.52976       75.67429
O         29.38613       55.06220       71.52951
H         28.52601       54.58858       71.40911
H         30.06748       54.42132       71.20459
O         28.89095       57.84409       70.45666
H         28.16442       57.54224       69.85669
H         29.32335       58.58758       69.96771

Ca 1.0



