%chk=holoCaM.loop3.water2.frame121.chk
%nprocshared=20
%mem=10GB
%nosave
#b3lyp/svp scf=(tight,noincore,xqc) Test 
#IOP(5/87=12) Density=Current Pop=(MK,readradii) iop(6/33=2) iop(6/42=6)

holoCaM.loop3.water2.frame121 

   0  1 
C         82.95977      109.74017       19.73473
C         83.77269      109.32004       20.92094
O         84.06538      110.16385       21.75673
H         81.98980      110.15329       20.08418
H         83.50692      110.52412       19.17119
H         82.75753      108.88514       19.05691
N         84.16062      108.02229       21.07972
C         84.91205      107.58397       22.24674
C         86.28031      108.24207       22.25689
O         87.05762      108.01748       21.33869
C         85.03128      106.04739       22.27426
C         85.56705      105.53623       23.58499
O         85.92796      106.37952       24.57030
O         85.63041      104.33742       23.77949
H         83.87577      107.32660       20.37252
H         84.32478      107.88057       23.14393
H         85.66047      105.68681       21.43078
H         84.01742      105.61409       22.14640
N         86.61903      109.10805       23.25287
C         87.88229      109.83529       23.27231
C         89.06621      108.89182       23.41612
O         89.86736      108.83680       22.49251
C         87.83213      110.94357       24.34509
C         89.15416      111.72116       24.45478
C         89.02816      113.01819       25.27154
C         88.28077      114.11826       24.49103
N         88.26177      115.37681       25.23447
H         85.92272      109.29969       23.99010
H         87.98447      110.36603       22.29703
H         87.57546      110.53098       25.34566
H         87.00819      111.62067       24.03749
H         89.54849      111.98174       23.44893
H         89.89066      111.05064       24.94907
H         90.05632      113.39185       25.46619
H         88.54061      112.81697       26.25105
H         87.23610      113.81476       24.27149
H         88.80240      114.28643       23.52162
H         87.73141      115.25827       26.12742
H         89.23851      115.69053       25.43871
H         87.79114      116.10788       24.65281
N         89.25718      108.12158       24.52845
C         90.40179      107.20597       24.63676
C         90.36693      106.11002       23.58517
O         91.38354      105.46238       23.37783
C         90.51872      106.55879       26.03160
C         89.38455      105.62392       26.34099
O         88.13538      106.09448       26.28198
O         89.59185      104.46979       26.67792
H         88.59250      108.22302       25.30829
H         91.31433      107.82265       24.47976
H         90.53102      107.36481       26.79608
H         91.47628      105.99884       26.11026
N         89.22216      105.82495       22.90564
C         89.14259      104.82216       21.87025
C         89.43908      103.43649       22.37705
O         90.31362      102.78758       21.82012
H         88.35704      106.34088       23.11379
H         89.83105      105.09165       21.04030
H         88.10801      104.81267       21.46207
N         88.68322      102.88518       23.37007
C         88.74089      101.46443       23.69850
C         87.50323      100.75192       23.15583
O         87.44014       99.53533       23.25191
C         88.95450      101.22593       25.21209
C         87.73712      101.49298       26.07086
N         87.21123      100.50443       26.83606
O         87.22942      102.60291       26.08870
H         87.96257      103.46884       23.81623
H         89.61366      101.00713       23.18460
H         89.80584      101.84746       25.56443
H         89.24746      100.16257       25.35098
H         87.62645       99.56073       26.84628
H         86.38800      100.67909       27.43029
N         86.48056      101.45062       22.56962
C         85.29787      100.84876       21.98892
C         84.06345      101.04988       22.84597
O         82.99572      100.65984       22.39370
H         86.51130      102.47334       22.51085
H         85.43011       99.75664       21.84305
H         85.14720      101.30206       20.98382
N         84.12799      101.55700       24.11594
C         82.98345      101.59411       25.02247
C         82.78657      102.97219       25.61494
O         83.73499      103.51634       26.16442
C         83.18538      100.61777       26.19931
C         83.33876       99.18308       25.75999
C         84.52779       98.73997       25.15665
C         82.29463       98.26719       25.96801
C         84.66763       97.40751       24.76268
C         82.43265       96.93626       25.56643
C         83.62138       96.50166       24.96272
O         83.76948       95.21941       24.57478
H         85.03983      101.84052       24.50363
H         82.05094      101.27445       24.50602
H         82.27871      100.70609       26.83965
H         84.05587      100.90111       26.82859
H         85.35278       99.42045       25.00176
H         81.36865       98.58430       26.43171
H         85.59183       97.07968       24.30373
H         81.61526       96.24490       25.72642
H         83.06915       94.56250       24.69556
N         81.55710      103.56381       25.61191
C         81.27560      104.82287       26.29716
C         80.19142      104.64182       27.35372
O         79.19285      103.98067       27.10160
C         80.94941      105.97255       25.30656
C         79.66751      105.71904       24.47663
C         82.17835      106.22191       24.41628
C         79.31189      106.88470       23.55119
H         80.77708      103.08522       25.13570
H         82.18056      105.17457       26.83121
H         80.78984      106.89458       25.91097
H         78.81163      105.58679       25.17058
H         79.77287      104.79837       23.86519
H         82.04621      107.11853       23.78068
H         83.07484      106.41097       25.04570
H         82.37188      105.33981       23.77221
H         80.08048      107.02245       22.76377
H         78.34992      106.67104       23.04133
H         79.20720      107.82426       24.13500
N         80.30040      105.29894       28.54128
C         79.29478      105.30781       29.59461
C         78.60013      106.66127       29.60512
O         78.86165      107.47055       28.72543
C         79.98197      105.02227       30.94949
O         80.88743      106.04476       31.28489
H         81.11466      105.90508       28.68380
H         78.52159      104.52849       29.42030
H         80.49083      104.03072       30.92572
H         79.23245      104.95333       31.76465
H         81.79279      105.74048       31.01654
N         77.69291      106.98016       30.56872
C         77.08072      108.30150       30.67864
C         78.12963      109.36816       30.95657
O         78.07354      110.42015       30.33848
C         76.03048      108.31835       31.78883
H         77.44543      106.26409       31.26865
H         76.54129      108.54402       29.73428
H         75.54675      109.31874       31.83085
H         75.24398      107.56542       31.56695
H         76.48647      108.09196       32.77477
N         79.12493      109.16314       31.87143
C         80.17260      110.15215       32.14007
C         81.08203      110.42741       30.93822
O         81.89499      111.33738       31.03009
C         81.03947      109.69416       33.31943
H         79.12941      108.27612       32.39810
H         79.67328      111.10313       32.42961
H         81.80024      110.46496       33.56867
H         80.40545      109.53155       34.21654
H         81.56043      108.74401       33.07029
N         81.00999      109.69457       29.78957
C         81.82684      109.93236       28.60319
C         80.98372      110.35582       27.40316
O         81.56770      110.67720       26.37751
C         82.57939      108.64418       28.23919
C         83.53503      108.18053       29.34365
C         84.18706      106.90311       28.92405
O         83.53613      105.88746       28.76024
O         85.49407      106.89701       28.65865
H         80.35622      108.91246       29.74901
H         82.55604      110.75059       28.79010
H         83.16918      108.80095       27.30781
H         81.82914      107.85700       28.02914
H         83.01517      108.02189       30.31103
H         84.31254      108.96451       29.47703
N         79.62021      110.37728       27.44274
C         78.78323      110.79119       26.33747
H         78.14367      111.63698       26.66783
H         79.37206      111.11714       25.45626
H         78.12855      109.94576       26.03823
H         79.12574      110.07838       28.28397
Ca        86.38263      105.30832       27.37688
O         87.90524      103.41009       28.89435
H         88.69589      102.84154       29.06868
H         87.39869      103.41219       29.74439
O         84.65925      102.66086       29.07628
H         84.54210      103.47299       28.52510
H         83.73868      102.32684       29.21997

Ca 1.0



