%chk=holoCaM-CaMKII.loop4.water1.frame354.chk
%nprocshared=20
%mem=10GB
%nosave
#b3lyp/svp scf=(tight,noincore,xqc) Test 
#IOP(5/87=12) Density=Current Pop=(MK,readradii) iop(6/33=2) iop(6/42=6)

holoCaM-CaMKII.loop4.water1.frame354 

   -3  1 
C         33.93912       59.71219       24.30206
C         33.50177       58.69287       23.29264
O         33.24519       57.55485       23.64973
H         34.94006       60.10371       24.01994
H         33.21507       60.55471       24.31312
H         33.99773       59.27133       25.31848
N         33.38960       59.05966       21.99135
C         32.97281       58.17261       20.90967
C         33.98918       57.04323       20.71400
O         35.15761       57.34518       20.51760
C         32.86923       59.02967       19.62758
C         32.30407       58.32552       18.44339
O         32.27493       58.90046       17.37074
O         31.80274       57.08838       18.54826
H         33.59971       60.04584       21.76612
H         31.96240       57.76530       21.14322
H         33.88166       59.40584       19.36686
H         32.20645       59.90304       19.81645
N         33.61146       55.72548       20.73210
C         34.55399       54.60486       20.56177
C         34.31040       53.85638       19.23284
O         35.12773       53.02362       18.86597
C         34.46620       53.65016       21.80608
C         34.57189       54.46173       23.12551
C         35.54396       52.54449       21.77265
C         34.33761       53.63965       24.39587
H         32.61572       55.50693       20.87853
H         35.58727       55.01055       20.50445
H         33.46617       53.16442       21.79457
H         33.77763       55.22839       23.12775
H         35.55589       54.97462       23.18808
H         36.56057       52.99253       21.78140
H         35.44713       51.86049       22.63776
H         35.44111       51.88876       20.88988
H         33.35013       53.13318       24.34977
H         35.13420       52.88690       24.55402
H         34.34180       54.31767       25.27554
N         33.22870       54.12174       18.44641
C         32.93545       53.48358       17.15872
C         32.92828       54.48574       15.99740
O         32.69345       54.07271       14.87085
C         31.59950       52.69118       17.22123
C         30.36143       53.48050       17.60532
O         29.27404       52.93221       17.58571
O         30.46439       54.75891       18.02008
H         32.57422       54.82490       18.77974
H         33.72696       52.74159       16.90971
H         31.71352       51.86025       17.95210
H         31.43138       52.22734       16.22426
N         33.24144       55.80012       16.18123
C         33.38063       56.77262       15.10807
C         32.11152       57.22483       14.40211
O         32.24742       58.12372       13.58278
H         33.51250       56.12366       17.11655
H         34.10691       56.39233       14.35753
H         33.82360       57.69114       15.55127
N         30.86531       56.69848       14.61615
C         29.70000       57.21415       13.88274
C         29.33804       58.64627       14.28260
O         28.63678       59.30172       13.52466
C         28.47004       56.27948       13.96063
C         27.93618       56.04020       15.34115
O         26.95579       55.33239       15.50173
O         28.53540       56.57966       16.40694
H         30.75133       55.90618       15.26255
H         29.98214       57.23451       12.80574
H         28.74297       55.29397       13.52864
H         27.65363       56.71532       13.34389
N         29.77359       59.19179       15.45424
C         29.55690       60.57716       15.84298
C         28.72983       60.73131       17.10065
O         28.61813       61.85889       17.56140
H         30.30176       58.60278       16.10653
H         29.06175       61.16325       15.03924
H         30.55492       61.03242       16.02236
N         28.08305       59.68085       17.68961
C         27.24721       59.82690       18.87828
C         27.67515       58.85271       20.01315
O         29.02706       58.52502       19.85713
C         25.75807       59.69996       18.47824
C         25.35490       58.37683       17.79268
C         25.34962       57.21332       18.73746
N         24.50671       57.20722       19.79291
O         26.08752       56.25964       18.54047
H         28.14546       58.75310       17.26312
H         27.36688       60.85913       19.27598
H         25.56146       60.50878       17.74097
H         25.10464       59.89569       19.35451
H         26.01378       58.17539       16.92241
H         24.32208       58.47818       17.39602
H         23.85853       57.98981       19.96223
H         24.48998       56.40969       20.43334
N         27.48044       59.52172       21.31432
C         27.98448       58.79233       22.49579
C         26.82962       58.14305       23.24245
O         26.02380       58.85428       23.82834
C         28.74940       59.79201       23.41949
C         29.29123       59.12411       24.69554
C         29.91766       60.45872       22.67412
H         26.50842       59.88800       21.44269
H         28.70665       58.00370       22.18623
H         28.04592       60.59763       23.72904
H         29.80520       59.87799       25.33115
H         28.46605       58.70095       25.30085
H         30.01235       58.31706       24.44688
H         29.55762       61.00578       21.77794
H         30.42272       61.19695       23.33475
H         30.66177       59.69990       22.35581
N         26.68426       56.78938       23.26027
C         25.65143       56.12384       24.05044
C         26.00433       56.16446       25.52277
O         27.08587       56.60667       25.88623
C         25.54497       54.63452       23.64631
C         24.96990       54.46815       22.27299
N         25.71169       53.94659       21.27388
O         23.80955       54.79193       22.06719
H         27.32837       56.21803       22.69382
H         24.66814       56.61825       23.88465
H         24.86517       54.07471       24.31973
H         26.55347       54.16861       23.72415
H         26.68857       53.67569       21.44662
H         25.31310       53.82654       20.33080
N         25.13572       55.64689       26.43209
C         25.50093       55.39241       27.81700
C         26.54951       54.28421       27.86518
O         27.42564       54.32814       28.71506
C         24.25359       54.97175       28.61768
C         24.54914       54.77073       30.08524
C         25.02979       55.83468       30.86996
C         24.33650       53.51925       30.68536
C         25.29621       55.64677       32.22870
C         24.60094       53.33459       32.04549
C         25.08213       54.39889       32.82188
O         25.33884       54.23533       34.13514
H         24.20037       55.35463       26.10663
H         25.89807       56.33030       28.26432
H         23.83391       54.04307       28.17029
H         23.48213       55.76761       28.52992
H         25.19714       56.81128       30.43377
H         23.96456       52.68607       30.10227
H         25.66679       56.47390       32.82136
H         24.43003       52.36451       32.49432
H         25.19846       53.39008       34.58505
N         26.51369       53.25974       26.95807
C         27.49653       52.17632       26.91585
C         28.90705       52.67371       26.61044
O         29.83216       51.87953       26.74093
C         27.12533       51.13605       25.82880
C         25.76275       50.46041       26.05245
C         25.47109       49.48440       24.94747
O         25.38011       49.87134       23.79251
O         25.29632       48.17892       25.22663
H         25.75017       53.25012       26.27194
H         27.50030       51.68206       27.91225
H         27.89928       50.33586       25.80939
H         27.12698       51.64376       24.83722
H         24.94124       51.20501       26.07030
H         25.77451       49.92746       27.02723
N         29.15643       53.93987       26.16577
C         30.48630       54.44255       25.84268
C         30.88068       55.62330       26.72510
O         32.01393       56.06561       26.61624
C         30.53216       54.86392       24.35900
C         30.16752       53.70564       23.41793
C         30.19588       54.14511       21.98407
O         30.91943       53.58055       21.18032
O         29.40141       55.14925       21.57149
H         28.36787       54.57546       26.00431
H         31.24821       53.64914       26.01089
H         31.55197       55.22709       24.10874
H         29.81487       55.70088       24.20086
H         29.14044       53.34697       23.64073
H         30.87837       52.86408       23.56958
N         30.01062       56.18736       27.61747
C         30.35500       57.29172       28.48867
H         29.69784       58.15710       28.26025
H         30.18710       56.98616       29.54338
H         31.41227       57.60836       28.37952
H         29.05014       55.84303       27.69658
Ca        29.16978       56.40812       18.94290
O         27.50725       52.21779       19.52507
H         27.52051       51.48428       20.18832
H         28.17377       52.86790       19.86452

Ca 1.0



