%chk=holoCaM-CaMKII.loop4.water1.frame393.chk
%nprocshared=20
%mem=10GB
%nosave
#b3lyp/svp scf=(tight,noincore,xqc) Test 
#IOP(5/87=12) Density=Current Pop=(MK,readradii) iop(6/33=2) iop(6/42=6)

holoCaM-CaMKII.loop4.water1.frame393 

   -3  1 
C         66.18181       81.31146       89.84898
C         67.41738       81.27037       90.70275
O         68.47539       80.92881       90.19428
H         65.30084       81.66452       90.42612
H         66.34255       82.01476       89.00348
H         65.96324       80.30175       89.44616
N         67.36338       81.64465       92.01154
C         68.54659       81.74110       92.85652
C         69.18677       80.37515       93.10604
O         68.56439       79.49987       93.69019
C         68.18255       82.41763       94.19043
C         69.37437       82.77393       95.03227
O         69.17641       83.37060       96.21554
O         70.51392       82.56252       94.65290
H         66.45419       81.94621       92.39539
H         69.25961       82.42189       92.33603
H         67.50242       81.75551       94.76894
H         67.64834       83.36921       93.97817
N         70.45177       80.14751       92.66836
C         71.20145       78.90295       92.83375
C         71.66791       78.70731       94.28078
O         71.62065       77.58781       94.77040
C         72.43499       78.90654       91.85914
C         71.94145       79.02994       90.38372
C         73.29306       77.63396       92.03294
C         73.05708       79.10416       89.33928
H         70.89773       80.91082       92.14747
H         70.57563       78.03665       92.52197
H         73.08114       79.78116       92.09760
H         71.34770       79.95714       90.25753
H         71.27899       78.17266       90.13478
H         74.18710       77.66028       91.37834
H         73.68595       77.55350       93.06699
H         72.69926       76.72506       91.79908
H         73.74312       79.94758       89.55806
H         73.63553       78.16081       89.29227
H         72.60500       79.26541       88.33722
N         72.23585       79.73662       94.97014
C         73.01415       79.59087       96.20792
C         72.39223       80.25137       97.44820
O         73.02589       80.20283       98.49459
C         74.45758       80.09393       95.93364
C         74.44639       81.44113       95.27305
O         74.89581       81.58335       94.14765
O         73.79489       82.44495       95.86952
H         72.18803       80.66946       94.54084
H         73.10755       78.52001       96.49375
H         74.95398       79.38083       95.24025
H         75.05128       80.12122       96.87286
N         71.12711       80.75884       97.46124
C         70.43773       81.10431       98.70336
C         70.78962       82.42680       99.36351
O         70.18812       82.69999      100.39406
H         70.56515       80.72084       96.60029
H         70.56950       80.27657       99.43510
H         69.34910       81.16557       98.48482
N         71.66857       83.33317       98.84177
C         71.85098       84.66881       99.43657
C         70.61184       85.57073       99.29980
O         70.67725       86.71090       99.73921
C         73.11997       85.36907       98.89349
C         73.16363       85.61915       97.41809
O         74.19851       86.03000       96.91786
O         72.14228       85.28593       96.61728
H         72.20707       83.07514       98.00334
H         72.05645       84.54290      100.52349
H         73.98378       84.71138       99.13633
H         73.27741       86.33584       99.41879
N         69.43784       85.12781       98.75578
C         68.22053       85.91519       98.69676
C         68.14562       86.84657       97.50885
O         67.12668       87.50873       97.38123
H         69.34448       84.15839       98.45033
H         68.07151       86.46002       99.65448
H         67.36297       85.21624       98.58368
N         69.15521       86.95444       96.59551
C         69.08890       87.84549       95.44148
C         69.32913       87.10309       94.13752
O         69.64303       85.92181       94.15181
C         70.03433       89.04612       95.67206
C         71.52264       88.75564       95.94748
C         72.31966       88.37057       94.72918
N         73.27939       89.20324       94.26739
O         72.12309       87.30720       94.16356
H         70.01296       86.41106       96.72930
H         68.06790       88.27637       95.35557
H         69.65014       89.54575       96.58869
H         69.94896       89.78251       94.84417
H         71.65364       88.00664       96.75388
H         71.94799       89.70542       96.33576
H         73.47365       90.10561       94.72364
H         73.83133       88.95167       93.44424
N         69.15384       87.75930       92.95386
C         69.35163       87.15626       91.64052
C         70.35398       87.99812       90.86242
O         70.12034       89.18268       90.67064
C         67.98675       87.05811       90.89464
C         68.14838       86.55202       89.44929
C         67.03359       86.10776       91.64084
H         68.83465       88.73913       92.98156
H         69.74291       86.11944       91.72981
H         67.51904       88.06658       90.84895
H         68.75806       87.26062       88.85456
H         68.62764       85.54979       89.42704
H         67.15695       86.48428       88.95147
H         67.46147       85.08157       91.68606
H         66.84755       86.46168       92.67545
H         66.05411       86.05505       91.11842
N         71.46361       87.41630       90.32376
C         72.37079       88.10201       89.40836
C         71.97270       87.77058       87.98624
O         71.06260       86.98848       87.78095
C         73.81717       87.60242       89.61726
C         74.43065       88.01832       90.91784
N         74.84118       87.08863       91.81200
O         74.60197       89.20627       91.14588
H         71.57440       86.39982       90.42474
H         72.30643       89.20611       89.52517
H         74.48781       87.99541       88.82442
H         73.80917       86.49521       89.53797
H         74.71134       86.08575       91.62008
H         75.29899       87.36565       92.69267
N         72.62935       88.33731       86.93909
C         72.36652       87.97186       85.55311
C         72.73767       86.51642       85.32010
O         71.93074       85.77446       84.77809
C         73.17420       88.88309       84.60927
C         72.92148       88.55166       83.15720
C         71.62595       88.63752       82.61577
C         73.98326       88.14808       82.33217
C         71.39850       88.31789       81.27488
C         73.75401       87.83372       80.99025
C         72.45945       87.91632       80.45741
O         72.22432       87.61402       79.16508
H         73.35627       89.04114       87.13861
H         71.28803       88.12962       85.33208
H         74.25684       88.78745       84.84697
H         72.88127       89.94053       84.78729
H         70.78935       88.94762       83.22882
H         74.98905       88.07501       82.72677
H         70.39568       88.38302       80.87157
H         74.58336       87.52495       80.36708
H         72.93146       87.33538       78.56605
N         73.94469       86.04366       85.74464
C         74.39946       84.66309       85.58247
C         73.34088       83.66985       86.03722
O         73.01918       82.75876       85.28720
C         75.76093       84.45426       86.30963
C         75.69137       84.59279       87.84273
C         77.04514       84.58457       88.48715
O         77.85366       85.46112       88.22606
O         77.35599       83.64160       89.39708
H         74.56426       86.70547       86.23661
H         74.58775       84.48209       84.50061
H         76.46921       85.21197       85.90805
H         76.16826       83.44807       86.06805
H         75.10041       83.75173       88.25825
H         75.21266       85.54956       88.11182
N         72.72308       83.82107       87.23970
C         71.69186       82.91832       87.73830
C         70.48143       82.96193       86.81697
O         70.09780       81.92651       86.29142
C         71.33311       83.27206       89.20498
C         72.58069       83.13812       90.11066
C         72.31669       83.41583       91.55795
O         72.64655       82.49809       92.48234
O         71.87926       84.49504       91.91598
H         72.98933       84.63243       87.81377
H         72.09181       81.87907       87.75355
H         70.54891       82.57198       89.56480
H         70.93374       84.30771       89.26412
H         73.36597       83.84965       89.79737
H         72.98988       82.11156       90.01753
N         69.86952       84.14522       86.53586
C         68.76730       84.29762       85.60776
H         67.90531       84.76230       86.12992
H         69.08049       84.96998       84.77922
H         68.44446       83.33165       85.16823
H         70.22423       84.99698       86.97532
Ca        72.95353       84.25392       94.84600
O         75.44193       84.29673       93.30741
H         76.31340       84.41968       92.85585
H         75.67046       84.17927       94.26336

Ca 1.0



