%chk=holoCaM.loop3.water2.frame388.chk
%nprocshared=20
%mem=10GB
%nosave
#b3lyp/svp scf=(tight,noincore,xqc) Test 
#IOP(5/87=12) Density=Current Pop=(MK,readradii) iop(6/33=2) iop(6/42=6)

holoCaM.loop3.water2.frame388 

   0  1 
C         79.24214       52.05938        1.27512
C         79.61654       51.32747        2.52394
O         79.63739       50.10396        2.52092
H         78.32639       52.65655        1.46427
H         80.07018       52.73739        0.97909
H         79.04678       51.34597        0.44686
N         79.95719       52.02584        3.64003
C         80.34527       51.36204        4.87052
C         79.12977       50.71998        5.51597
O         78.21705       51.43611        5.90702
C         80.99613       52.36878        5.83293
C         81.53719       51.71146        7.06095
O         82.15081       52.45974        7.98415
O         81.45156       50.50635        7.22327
H         79.98292       53.05666        3.59023
H         81.12146       50.60223        4.62109
H         80.26335       53.15057        6.12909
H         81.84782       52.86419        5.31975
N         79.04175       49.36717        5.63896
C         77.87416       48.71755        6.22027
C         77.84053       48.93858        7.72286
O         76.90200       49.55822        8.20465
C         77.81537       47.21371        5.86860
C         77.81170       47.00619        4.34208
C         77.52118       45.55552        3.95082
C         77.56083       45.40356        2.42236
N         77.17116       44.05563        2.01403
H         79.80117       48.79373        5.24896
H         76.96258       49.16608        5.76071
H         76.86856       46.80833        6.29038
H         78.66510       46.65310        6.31384
H         78.79499       47.30554        3.92062
H         77.02311       47.64567        3.88791
H         76.50899       45.28452        4.32346
H         78.26882       44.87280        4.41057
H         78.59031       45.62097        2.05751
H         76.86377       46.13419        1.95414
H         77.22846       43.98616        0.97213
H         77.81061       43.34694        2.44023
H         76.18502       43.86788        2.30860
N         78.83361       48.45386        8.52990
C         78.83068       48.63031        9.98369
C         78.97477       50.08796       10.42897
O         78.81811       50.34230       11.61571
C         79.89506       47.73077       10.66934
C         81.34235       47.98691       10.29321
O         82.21965       47.32609       10.82261
O         81.67114       48.91360        9.37047
H         79.58698       47.90075        8.09698
H         77.84177       48.27250       10.35261
H         79.65910       46.67104       10.42636
H         79.79149       47.84765       11.77068
N         79.24331       51.09953        9.55204
C         79.27078       52.50514        9.92895
C         80.37522       52.92298       10.88742
O         80.36161       54.08442       11.27035
H         79.36313       50.88783        8.55551
H         78.28911       52.75759       10.38577
H         79.38013       53.12198        9.01005
N         81.35166       52.07692       11.33522
C         82.34428       52.49205       12.33372
C         83.32017       53.57819       11.85169
O         84.11597       54.02807       12.66475
C         83.11612       51.26315       12.88921
C         84.00827       50.55572       11.89953
N         84.72536       49.47254       12.27460
O         84.09597       50.95886       10.75674
H         81.35260       51.09878       11.01572
H         81.77932       52.90715       13.19764
H         82.37732       50.52955       13.27926
H         83.75069       51.59269       13.73952
H         84.67252       49.11386       13.23842
H         85.33791       48.99261       11.59721
N         83.33873       54.03336       10.56322
C         84.25629       55.04861       10.05956
C         85.20893       54.51500        8.99867
O         86.00543       55.29613        8.49920
H         82.67527       53.64887        9.88958
H         84.88073       55.46675       10.87839
H         83.65842       55.88147        9.63229
N         85.23816       53.19379        8.65564
C         86.23825       52.58985        7.78542
C         85.58994       51.77541        6.64272
O         84.38487       51.09683        6.89657
C         87.20040       51.76084        8.66333
C         88.06758       52.68613        9.49306
C         87.95548       52.73726       10.89165
C         89.00696       53.51842        8.85250
C         88.76182       53.61247       11.63191
C         89.81263       54.38553        9.59281
C         89.69158       54.43755       10.98687
O         90.46173       55.27314       11.71349
H         84.58701       52.54783        9.10749
H         86.84523       53.36110        7.26540
H         87.89005       51.14623        8.04662
H         86.60329       51.07251        9.29905
H         87.23951       52.11093       11.40796
H         89.12050       53.49409        7.77557
H         88.66403       53.65132       12.70920
H         90.52956       55.01616        9.08067
H         91.11669       55.85695       11.30339
N         86.55609       51.00532        5.84996
C         86.02425       50.22545        4.71494
C         87.09651       49.21199        4.35471
O         88.14309       49.59449        3.84763
C         85.61214       51.10824        3.47189
C         84.30544       51.90257        3.75738
C         85.43189       50.24871        2.19846
C         83.81394       52.77791        2.60155
H         87.32376       51.63713        5.52166
H         85.13783       49.64645        5.04781
H         86.44080       51.81725        3.25182
H         84.45950       52.59115        4.60569
H         83.49297       51.18945        4.01869
H         85.23437       50.87838        1.30925
H         86.36257       49.70705        1.94335
H         84.60497       49.52553        2.31908
H         83.52300       52.17140        1.72038
H         82.90487       53.32915        2.92238
H         84.59591       53.51095        2.31353
N         86.90001       47.88901        4.61472
C         87.85388       46.85237        4.23541
C         87.83771       46.64386        2.72731
O         87.03781       47.25538        2.04127
C         87.50454       45.53396        4.95629
O         86.22095       45.10161        4.59736
H         86.04680       47.60980        5.11863
H         88.87026       47.15371        4.57085
H         87.54580       45.71828        6.05417
H         88.24405       44.74414        4.70265
H         85.98152       44.37492        5.22898
N         88.68713       45.74969        2.14874
C         88.63246       45.40655        0.72953
C         87.28848       44.78778        0.38691
O         86.69683       45.16520       -0.61649
C         89.75125       44.41958        0.38392
H         89.37531       45.27099        2.74714
H         88.80237       46.31504        0.10887
H         89.72062       44.17668       -0.70045
H         90.73767       44.87996        0.60696
H         89.65051       43.48090        0.96832
N         86.73284       43.85001        1.20573
C         85.44062       43.21401        0.96725
C         84.32426       44.23509        0.81795
O         83.64088       44.21627       -0.19497
C         85.10850       42.25514        2.11882
H         87.25549       43.58671        2.05741
H         85.50280       42.61180        0.03324
H         84.13998       41.74540        1.93014
H         85.90044       41.48155        2.21004
H         85.04104       42.80239        3.08415
N         84.09272       45.16463        1.78817
C         83.03454       46.17193        1.70175
C         83.18655       47.03406        0.45740
O         82.17556       47.43303       -0.10535
C         83.00686       47.05787        2.96913
C         82.61697       46.25542        4.22376
C         82.61568       47.11035        5.45923
O         81.49464       47.23927        6.19047
O         83.63833       47.65938        5.83165
H         84.70852       45.16080        2.61068
H         82.05030       45.65628        1.63036
H         82.25735       47.87061        2.83594
H         84.00840       47.51517        3.11286
H         83.32741       45.42087        4.39014
H         81.60106       45.82714        4.07754
N         84.41077       47.31795       -0.06365
C         84.57838       48.06426       -1.29102
H         85.65851       48.14502       -1.53938
H         84.06775       47.53673       -2.12591
H         84.15646       49.08442       -1.17989
H         85.25388       46.97300        0.40807
Ca        83.70485       49.57055        8.49779
O         84.48496       46.38478        9.37715
H         85.30183       45.95783        9.73802
H         83.83207       45.64480        9.29599
O         86.59641       48.49803        8.13983
H         86.61295       47.51178        8.06223
H         86.91427       48.67812        9.06009

Ca 1.0



