%chk=holoCaM-CaMKII.loop1.water2.frame472.chk
%nprocshared=20
%mem=10GB
%nosave
#b3lyp/svp scf=(tight,noincore,xqc) Test 
#IOP(5/87=12) Density=Current Pop=(MK,readradii) iop(6/33=2) iop(6/42=6)

holoCaM-CaMKII.loop1.water2.frame472 

   0  1 
C         62.56949       67.10149       71.21576
C         62.94196       68.36224       71.93093
O         62.31947       69.37746       71.68336
H         61.72479       67.28424       70.51687
H         63.44072       66.72459       70.64326
H         62.25330       66.33898       71.95895
N         63.92657       68.34610       72.87097
C         64.30927       69.48542       73.70571
C         65.10490       70.53779       72.91711
O         66.31674       70.62125       73.06524
C         65.10714       68.94622       74.91524
C         65.32059       69.95982       75.99879
O         64.86743       71.09027       75.91371
O         65.98455       69.58990       77.10491
H         64.36892       67.43256       73.06109
H         63.39220       69.93743       74.14122
H         66.08538       68.53898       74.57881
H         64.53156       68.11811       75.38373
N         64.47299       71.37629       72.05041
C         65.15335       72.34595       71.19355
C         65.85820       73.48170       71.93369
O         66.56921       74.21986       71.26514
C         64.19587       72.88287       70.08444
C         62.81367       73.43904       70.50613
C         62.83703       74.66379       71.42375
C         61.40027       75.07586       71.79045
N         61.38979       76.26030       72.64510
H         63.46311       71.28605       71.97171
H         65.95719       71.79833       70.65105
H         63.97034       72.02226       69.41624
H         64.72910       73.63664       69.46520
H         62.21810       72.64342       70.98650
H         62.26546       73.71011       69.57733
H         63.35338       75.50013       70.90593
H         63.37221       74.42486       72.36257
H         60.90149       74.24164       72.32804
H         60.81384       75.28336       70.86849
H         60.40188       76.47995       72.90948
H         61.94151       76.08279       73.51516
H         61.79287       77.07442       72.12815
N         65.72665       73.70112       73.27702
C         66.42646       74.78640       73.97540
C         67.32762       74.29484       75.10906
O         67.99105       75.12385       75.71699
C         65.41964       75.85696       74.45091
C         64.39463       75.39759       75.45354
O         64.38381       74.13684       75.92123
O         63.55758       76.18947       75.85542
H         65.08720       73.10179       73.81478
H         67.10620       75.31400       73.27112
H         64.88310       76.24339       73.55681
H         65.98274       76.70611       74.89712
N         67.44141       72.97481       75.43154
C         68.34825       72.47270       76.45169
C         68.01007       72.97571       77.83555
O         68.86081       73.57000       78.48139
H         66.90060       72.27466       74.91184
H         69.39283       72.74158       76.18383
H         68.28052       71.36240       76.47322
N         66.78160       72.73022       78.36245
C         66.37741       73.07627       79.72213
C         66.00729       71.82341       80.52272
O         65.49558       71.95647       81.62587
C         65.24499       74.13277       79.69039
C         63.96453       73.74705       78.99660
O         63.04804       74.55148       78.94954
O         63.80979       72.54797       78.41214
H         66.10210       72.24142       77.76788
H         67.21216       73.56242       80.27321
H         65.63932       75.04012       79.18260
H         64.99704       74.41453       80.73698
N         66.29339       70.57060       80.05378
C         65.99902       69.33438       80.76492
C         64.52709       68.97050       80.82366
O         64.22885       67.91933       81.37465
H         66.81711       70.47103       79.17698
H         66.42529       69.38486       81.79004
H         66.50262       68.49901       80.23068
N         63.55220       69.76508       80.29705
C         62.12781       69.45390       80.35640
C         61.50092       69.46163       78.96281
O         62.01275       70.12305       78.06854
C         61.41627       70.44838       81.31786
C         61.90277       70.23029       82.75472
O         61.65641       71.79749       80.99193
H         63.81626       70.65240       79.86198
H         61.97070       68.43167       80.76763
H         60.32126       70.25497       81.30090
H         61.78408       71.87942       80.01578
H         61.70532       69.18653       83.07911
H         62.99225       70.43338       82.83832
H         61.36890       70.91869       83.44327
N         60.41639       68.67500       78.69980
C         59.78329       68.54193       77.38670
C         58.29723       68.85760       77.49296
O         57.62876       68.32271       78.36817
C         60.06224       67.12324       76.80792
C         61.58829       67.00151       76.52359
C         59.25150       66.87962       75.51533
C         62.04177       65.63049       76.02702
H         60.04509       68.08848       79.46427
H         60.22457       69.24645       76.66086
H         59.75166       66.35940       77.55475
H         62.15580       67.20511       77.45557
H         61.88724       67.76356       75.76786
H         59.42174       65.85908       75.11969
H         58.16172       66.94697       75.71444
H         59.51911       67.62177       74.73378
H         61.58488       65.37573       75.05026
H         63.14326       65.64681       75.88157
H         61.79178       64.85114       76.77615
N         57.70819       69.68480       76.57839
C         56.30086       70.07558       76.60336
C         55.53366       69.45283       75.44489
O         56.12524       68.78647       74.60625
C         56.19458       71.62377       76.52580
C         56.94147       72.29492       77.67918
O         56.72989       72.06354       75.30174
H         58.28440       70.05190       75.80879
H         55.81994       69.71568       77.53980
H         55.12291       71.91807       76.58190
H         56.61603       73.04845       75.25658
H         56.54315       71.95323       78.65591
H         58.02006       72.05253       77.61101
H         56.82467       73.39823       77.61237
N         54.18534       69.63734       75.35188
C         53.36344       69.14468       74.24611
C         53.77102       69.80022       72.93772
O         53.73769       69.14101       71.90866
C         51.85747       69.39661       74.50405
C         51.35859       68.60281       75.72043
O         51.62235       70.76933       74.69130
H         53.72353       70.16905       76.10504
H         53.49394       68.04265       74.14702
H         51.29518       69.03907       73.60903
H         50.64057       70.90449       74.63231
H         51.87702       68.91412       76.65040
H         50.26912       68.76675       75.85749
H         51.52870       67.51629       75.56257
N         54.16645       71.10457       72.91057
C         54.62921       71.78686       71.70574
C         55.87881       71.09521       71.17558
O         55.88114       70.67383       70.02714
C         54.88592       73.27433       72.04509
C         55.17157       74.21852       70.86315
C         53.99624       74.30963       69.87255
C         54.15163       75.51322       68.92969
N         53.03251       75.59436       67.99007
H         54.14731       71.63368       73.79569
H         53.81638       71.74481       70.94847
H         55.72190       73.34773       72.77337
H         53.97558       73.67076       72.54820
H         56.10630       73.93812       70.33135
H         55.32186       75.22423       71.31472
H         53.04794       74.45052       70.43576
H         53.92793       73.36864       69.28530
H         55.10591       75.44207       68.36376
H         54.17506       76.44457       69.54047
H         53.03826       74.76374       67.35505
H         52.12397       75.63673       68.50731
H         53.12962       76.46226       67.41462
N         56.96225       70.89503       71.98632
C         58.16444       70.17582       71.56206
C         57.90314       68.71741       71.19248
O         58.79213       68.10743       70.61326
C         59.23037       70.16665       72.67933
C         59.87529       71.53317       72.93549
C         61.04048       71.36987       73.91130
O         61.80461       72.53576       74.00876
O         60.57613       71.07209       75.19226
H         56.92171       71.26148       72.94660
H         58.57407       70.68167       70.65939
H         60.04298       69.48194       72.37401
H         58.79156       69.74944       73.60940
H         59.14146       72.27872       73.30939
H         60.29011       71.88850       71.97200
N         56.75181       68.07637       71.52980
C         56.48323       66.68756       71.21736
H         55.55845       66.62226       70.60749
H         57.31085       66.20966       70.65255
H         56.33218       66.12338       72.16163
H         56.03703       68.57605       72.06127
Ca        61.81970       72.62235       76.27552
O         60.06676       73.14855       78.66772
H         59.66155       72.61292       79.39497
H         59.41880       73.87965       78.51515
O         60.31099       74.94472       75.47885
H         59.51118       74.56460       75.03661
H         60.09687       74.92014       76.44455

Ca 1.0



