%chk=holoCaM-CaMKII.loop3.water2.frame69.chk
%nprocshared=20
%mem=10GB
%nosave
#b3lyp/svp scf=(tight,noincore,xqc) Test 
#IOP(5/87=12) Density=Current Pop=(MK,readradii) iop(6/33=2) iop(6/42=6)

holoCaM-CaMKII.loop3.water2.frame69 

   0  1 
C         79.74315       49.65406       75.22724
C         81.06693       49.22334       75.77802
O         81.21371       48.04981       76.08267
H         78.95259       49.46490       75.98453
H         79.74194       50.73407       74.97333
H         79.51826       49.06822       74.31183
N         82.07305       50.12444       75.96511
C         83.36303       49.76393       76.53098
C         83.45372       50.37133       77.91986
O         84.23181       51.28199       78.16953
C         84.50188       50.19017       75.58629
C         85.77132       49.58799       76.09396
O         86.67847       50.29150       76.49786
O         85.85222       48.24755       76.17737
H         81.90683       51.11688       75.73765
H         83.43335       48.66146       76.65426
H         84.56361       51.29884       75.52736
H         84.32792       49.79248       74.56497
N         82.61902       49.88596       78.87520
C         82.48402       50.42524       80.22405
C         83.80325       50.34584       80.97525
O         84.27872       51.37665       81.43052
C         81.35191       49.68631       80.97853
C         79.99405       49.83611       80.25079
C         78.86603       49.08845       80.96928
C         77.55917       49.06314       80.15093
N         77.01946       50.39993       79.89667
H         82.03403       49.08436       78.60199
H         82.18019       51.49465       80.15516
H         81.25826       50.11194       82.00160
H         81.60602       48.60730       81.06752
H         80.05224       49.41724       79.22736
H         79.74370       50.91499       80.16892
H         78.68995       49.54272       81.96780
H         79.17654       48.03045       81.11434
H         76.80699       48.47021       80.71605
H         77.73568       48.54676       79.18002
H         76.10281       50.30436       79.40236
H         76.86775       50.90648       80.79829
H         77.66026       50.94662       79.27845
N         84.47295       49.16250       81.09877
C         85.78711       49.04086       81.74148
C         86.77712       50.06043       81.17056
O         87.24589       50.87811       81.95132
C         86.35108       47.59236       81.69726
C         86.46077       47.05316       80.30406
O         85.45318       46.85295       79.64639
O         87.65174       46.87796       79.71338
H         84.02449       48.33127       80.69468
H         85.66236       49.28474       82.82105
H         85.70407       46.90510       82.28373
H         87.35621       47.60136       82.17328
N         87.09178       50.13037       79.83833
C         87.89026       51.22324       79.28511
C         89.15245       50.82478       78.54082
O         89.83841       51.74023       78.10582
H         86.67590       49.45617       79.18158
H         88.20959       51.92483       80.08572
H         87.24779       51.80533       78.59178
N         89.56885       49.53320       78.36959
C         90.87359       49.22867       77.77034
C         91.01332       49.64131       76.29820
O         92.12821       49.59028       75.79869
C         91.28899       47.74853       78.00315
C         90.54212       46.69458       77.22244
N         90.83666       45.38588       77.39218
O         89.68481       47.00729       76.42192
H         89.00432       48.76936       78.76014
H         91.61474       49.82738       78.34585
H         91.17978       47.52580       79.08668
H         92.36235       47.63926       77.73919
H         91.56170       45.09111       78.06099
H         90.33778       44.66410       76.85050
N         89.94702       50.04264       75.54114
C         90.05090       50.47570       74.15002
C         89.38834       49.51407       73.17665
O         89.40679       49.79496       71.98623
H         89.00880       50.03454       75.95322
H         91.11361       50.56562       73.83715
H         89.59155       51.48338       74.05862
N         88.85932       48.32851       73.59327
C         88.36105       47.28430       72.70893
C         86.98068       46.83006       73.12867
O         86.72593       46.70728       74.31579
C         89.28435       46.05016       72.76221
C         90.64342       46.31339       72.16195
C         91.59573       47.11052       72.82091
C         90.96892       45.74569       70.91871
C         92.84679       47.33996       72.23866
C         92.21456       45.98143       70.33657
C         93.15898       46.78031       70.99443
O         94.36567       47.01420       70.44119
H         88.87139       48.10915       74.58998
H         88.33114       47.62067       71.64793
H         88.78713       45.25347       72.16456
H         89.39547       45.65896       73.79651
H         91.37850       47.54705       73.78686
H         90.25249       45.12846       70.39060
H         93.57433       47.95332       72.75515
H         92.44175       45.54254       69.37341
H         94.61454       46.64687       69.58071
N         86.09836       46.38977       72.19275
C         84.79385       45.82425       72.51247
C         84.82141       44.33807       72.21370
O         85.12707       43.95548       71.09162
C         83.68252       46.54285       71.69090
C         83.60737       48.03607       72.09573
C         82.31441       45.85047       71.88700
C         82.65391       48.85904       71.22693
H         86.38538       46.40366       71.20108
H         84.55133       45.95368       73.59200
H         83.94882       46.47270       70.61215
H         84.61280       48.49666       71.99093
H         83.29607       48.11857       73.16012
H         81.52743       46.31691       71.26395
H         82.35898       44.79290       71.55729
H         82.00437       45.88104       72.95330
H         82.96524       48.80376       70.16203
H         81.60538       48.51415       71.32275
H         82.68479       49.91995       71.55160
N         84.42233       43.44878       73.16812
C         84.25733       42.02239       72.92116
C         82.77318       41.70944       72.81582
O         81.96292       42.61194       72.95799
C         84.94458       41.21291       74.03370
O         86.31366       41.51122       74.08775
H         84.11251       43.81041       74.08350
H         84.70870       41.73834       71.94545
H         84.80482       40.11855       73.88485
H         84.49215       41.46131       75.01822
H         86.74883       40.99552       73.35947
N         82.33879       40.46096       72.49645
C         80.93139       40.15049       72.24893
C         80.05912       40.39602       73.46683
O         79.08413       41.12551       73.35481
C         80.77976       38.70023       71.78711
H         83.04308       39.71822       72.36422
H         80.56763       40.79058       71.41255
H         81.37751       38.53900       70.86442
H         81.12689       37.99354       72.56947
H         79.71453       38.48918       71.55097
N         80.35738       39.82224       74.66624
C         79.55055       40.00142       75.87261
C         79.34611       41.46662       76.19451
O         78.21624       41.86409       76.44461
C         80.21733       39.30621       77.06380
H         81.21090       39.24567       74.72524
H         78.55391       39.52730       75.72597
H         81.21985       39.74174       77.26357
H         79.58853       39.42215       77.97327
H         80.33040       38.22126       76.85546
N         80.39324       42.33595       76.15454
C         80.26006       43.76504       76.42293
C         79.18897       44.37712       75.53283
O         78.24199       44.94506       76.05911
C         81.60650       44.49246       76.21569
C         82.69262       44.02067       77.19722
C         83.96862       44.78094       76.98618
O         84.99600       44.18971       76.69759
O         83.98912       46.11850       77.12906
H         81.31323       41.95964       75.88253
H         79.95188       43.90943       77.48337
H         81.44239       45.57577       76.38338
H         81.95709       44.35038       75.17046
H         82.89636       42.93743       77.06662
H         82.34942       44.18790       78.24029
N         79.25559       44.26003       74.17822
C         78.24150       44.76250       73.27419
H         77.41503       45.27803       73.80635
H         78.70398       45.47418       72.55969
H         77.81018       43.91194       72.70411
H         80.04888       43.76412       73.75985
Ca        87.25865       47.15505       77.53016
O         87.78623       44.07602       78.57564
H         88.39909       43.48748       78.06813
H         88.20384       44.15323       79.46988
O         87.87886       44.23647       75.46711
H         87.06047       43.85937       75.05913
H         88.58541       43.57389       75.26345

Ca 1.0



