%chk=holoCaM.loop1.water2.frame188.chk
%nprocshared=20
%mem=10GB
%nosave
#b3lyp/svp scf=(tight,noincore,xqc) Test 
#IOP(5/87=12) Density=Current Pop=(MK,readradii) iop(6/33=2) iop(6/42=6)

holoCaM.loop1.water2.frame188 

   0  1 
C         39.58318       83.10242       93.11948
C         40.93403       83.04043       93.76093
O         41.01615       82.80700       94.95777
H         38.78444       82.93573       93.87355
H         39.43778       84.09810       92.65244
H         39.50855       82.31454       92.34055
N         42.05477       83.20603       93.00718
C         43.39135       83.10381       93.57361
C         43.67339       84.30349       94.48654
O         43.55147       85.42202       94.00579
C         44.44718       83.02732       92.44061
C         45.74030       82.46302       92.95496
O         45.77499       81.96244       94.20256
O         46.71889       82.38697       92.23213
H         41.94486       83.34750       91.99037
H         43.42141       82.13951       94.12704
H         44.58801       84.03176       91.98253
H         44.11125       82.32857       91.64383
N         44.02826       84.16011       95.80367
C         44.15957       85.30076       96.72444
C         45.55605       85.52060       97.31879
O         45.71005       86.52720       97.99736
C         43.10769       85.16959       97.84796
C         41.68811       85.37364       97.29051
C         40.56434       85.19399       98.32149
C         40.65545       86.16961       99.50491
N         39.48669       86.04037      100.37456
H         44.14510       83.21045       96.18291
H         43.95601       86.25157       96.18521
H         43.28458       85.95772       98.60858
H         43.20687       84.17579       98.33961
H         41.50563       84.64887       96.47758
H         41.61825       86.39556       96.85656
H         40.56391       84.14858       98.69922
H         39.60340       85.37088       97.78957
H         40.71113       87.21413       99.12613
H         41.57087       85.95756      100.09845
H         38.61926       86.28994       99.84561
H         39.40989       85.06202      100.73617
H         39.58716       86.69531      101.18331
N         46.62117       84.69859       97.09330
C         47.99286       85.02415       97.54151
C         48.94842       85.18648       96.35271
O         50.11278       85.48557       96.57815
C         48.52099       84.01366       98.60516
C         48.58398       82.59981       98.11411
O         48.87615       81.67854       98.85985
O         48.25845       82.39076       96.83503
H         46.45633       83.84438       96.54511
H         48.00447       86.00844       98.05594
H         47.83550       84.05183       99.47903
H         49.53275       84.32232       98.94939
N         48.51785       85.07449       95.06100
C         49.34813       85.36014       93.90428
C         50.46564       84.37207       93.68742
O         51.60796       84.78653       93.55203
H         47.53313       84.85324       94.85991
H         49.74254       86.39767       93.97041
H         48.70760       85.30687       92.99602
N         50.18561       83.04787       93.55453
C         51.14913       82.05695       93.08705
C         50.65759       81.41591       91.78464
O         51.27732       80.46464       91.32918
C         51.47844       81.02764       94.19123
C         50.30166       80.32446       94.77944
O         49.55485       79.67807       94.07304
O         50.08873       80.37023       96.10763
H         49.21640       82.73303       93.71914
H         52.12790       82.52540       92.84277
H         52.00504       81.55078       95.01773
H         52.17471       80.26509       93.77970
N         49.60152       81.93543       91.08279
C         49.15491       81.41141       89.80195
C         48.39750       80.10096       89.88602
O         48.04385       79.59589       88.82846
H         49.14132       82.79688       91.40527
H         50.03458       81.31162       89.12777
H         48.46166       82.14384       89.33423
N         48.11379       79.47747       91.06922
C         47.42115       78.18998       91.14593
C         46.29698       78.19458       92.18429
O         46.11456       79.18306       92.88425
C         48.44524       77.06350       91.42986
C         49.47497       76.92223       90.29395
O         49.08467       77.25643       92.66496
H         48.44059       79.90034       91.94567
H         46.94362       77.95764       90.16838
H         47.91210       76.09222       91.47735
H         49.85290       77.86763       92.52226
H         50.16222       76.08013       90.51819
H         48.96021       76.71750       89.33194
H         50.08258       77.84613       90.18367
N         45.48240       77.10283       92.30752
C         44.35748       76.99240       93.23619
C         44.54315       75.78373       94.15262
O         44.64720       74.66494       93.66729
C         43.02239       76.92174       92.42641
C         42.76098       78.30928       91.77570
C         41.83180       76.50143       93.30682
C         41.45234       78.41401       90.99016
H         45.64176       76.30364       91.67467
H         44.29429       77.88858       93.88422
H         43.11642       76.14180       91.63785
H         43.59613       78.54650       91.08325
H         42.73533       79.09201       92.56730
H         40.90977       76.38616       92.70464
H         42.00533       75.50206       93.74830
H         41.65369       77.24207       94.10499
H         40.57309       78.29881       91.65796
H         41.37850       79.42500       90.53745
H         41.41618       77.65044       90.18667
N         44.55234       75.95255       95.50882
C         44.62334       74.85600       96.48018
C         43.24433       74.23933       96.69186
O         42.29708       74.67099       96.06157
C         45.15126       75.38458       97.84562
C         46.53245       76.01910       97.71423
O         44.25551       76.32530       98.38015
H         44.46068       76.91239       95.87547
H         45.33783       74.08131       96.12379
H         45.25035       74.52353       98.54387
H         44.43551       76.37828       99.35516
H         47.25397       75.29926       97.27447
H         46.46698       76.92065       97.07921
H         46.89990       76.32641       98.71514
N         43.04345       73.25884       97.61703
C         41.71043       72.78124       97.98941
C         40.86973       73.92773       98.54691
O         39.74334       74.11354       98.10987
C         41.77326       71.63634       99.04299
C         42.45681       70.37108       98.50331
O         42.36152       72.05331      100.25305
H         43.86301       72.87839       98.10814
H         41.19875       72.36176       97.09373
H         40.72666       71.33863       99.27676
H         43.34612       72.07404      100.13687
H         43.51837       70.56280       98.24445
H         42.42118       69.57087       99.27311
H         41.92669       70.00934       97.59695
N         41.37069       74.72780       99.52986
C         40.61858       75.77941      100.21458
C         40.07814       76.82082       99.24697
O         38.87582       77.04508       99.23377
C         41.51666       76.39065      101.31213
C         40.76589       77.33663      102.26240
C         41.60763       77.75000      103.48796
C         41.93414       76.56149      104.41972
N         42.63333       77.00334      105.62480
H         42.34256       74.55406       99.82959
H         39.75774       75.29942      100.73193
H         42.39656       76.90924      100.87034
H         41.88418       75.52783      101.89892
H         39.84215       76.84163      102.63294
H         40.46873       78.24712      101.69802
H         41.00943       78.48473      104.06936
H         42.54543       78.24826      103.15878
H         42.57594       75.81767      103.90446
H         40.98681       76.05871      104.71714
H         43.54409       77.44876      105.36909
H         42.04100       77.67962      106.15848
H         42.82256       76.17142      106.23058
N         40.90469       77.45612       98.37280
C         40.44392       78.39907       97.35067
C         39.37211       77.74866       96.48677
O         38.28611       78.30067       96.37760
C         41.64589       78.87426       96.49931
C         42.58573       79.77727       97.32404
C         43.84525       80.17141       96.60357
O         44.08235       79.77950       95.47338
O         44.73909       80.95831       97.23046
H         41.90272       77.20789       98.40452
H         39.98904       79.29582       97.82858
H         41.29145       79.45869       95.62039
H         42.20081       77.98400       96.13516
H         42.89405       79.26114       98.25526
H         42.03518       80.70333       97.59896
N         39.59138       76.54310       95.89920
C         38.59683       75.81482       95.13698
H         37.64007       76.36945       95.04676
H         38.98536       75.60586       94.11971
H         38.39094       74.84624       95.64142
H         40.49990       76.09688       96.03494
Ca        47.44103       81.01577       95.31509
O         46.85389       79.33301       98.39092
H         47.30468       78.73852       99.04056
H         47.58883       79.68778       97.83214
O         47.93797       77.77000       95.29620
H         48.48156       76.95302       95.17085
H         48.28276       78.16027       96.13752

Ca 1.0



