%chk=holoCaM-CaMKII.loop3.water2.frame186.chk
%nprocshared=20
%mem=10GB
%nosave
#b3lyp/svp scf=(tight,noincore,xqc) Test 
#IOP(5/87=12) Density=Current Pop=(MK,readradii) iop(6/33=2) iop(6/42=6)

holoCaM-CaMKII.loop3.water2.frame186 

   0  1 
C          1.04172       47.99554       15.71552
C          1.14520       46.87083       16.70378
O          0.35294       46.82352       17.63286
H          1.18978       48.96447       16.23614
H          1.81015       47.90520       14.91789
H          0.03960       47.98127       15.23913
N          2.12108       45.93284       16.56945
C          2.30744       44.80932       17.47263
C          3.61368       45.01974       18.20720
O          4.58299       44.31387       17.96906
C          2.25803       43.50338       16.65479
C          2.44840       42.29522       17.52080
O          3.37016       41.52799       17.30200
O          1.60688       42.05528       18.54099
H          2.79236       46.02570       15.79083
H          1.50100       44.75448       18.23889
H          3.03694       43.52075       15.86155
H          1.26870       43.41860       16.16242
N          3.70090       46.02409       19.12242
C          4.92818       46.33532       19.84703
C          5.34109       45.24368       20.83893
O          6.41075       45.38899       21.41483
C          4.79700       47.68345       20.59579
C          4.50978       48.86247       19.64542
C          4.49379       50.19392       20.41083
C          4.24645       51.41242       19.50321
N          2.90502       51.41269       18.91483
H          2.86337       46.60551       19.27615
H          5.74578       46.45224       19.10050
H          5.75804       47.89162       21.11621
H          3.99196       47.61416       21.36083
H          3.53270       48.70962       19.14765
H          5.30236       48.90723       18.86678
H          5.48759       50.32777       20.89173
H          3.72178       50.16801       21.21048
H          5.01380       51.44990       18.69829
H          4.35892       52.32918       20.12341
H          2.18164       51.37485       19.66942
H          2.77488       52.29660       18.37161
H          2.78106       50.60940       18.25951
N          4.57527       44.13751       21.09945
C          4.97679       43.08992       22.04228
C          5.25284       41.75136       21.34419
O          5.63151       40.80709       22.02304
C          3.95719       43.00762       23.19675
C          2.57613       42.62880       22.75951
O          2.34862       41.41285       22.23878
O          1.64793       43.40705       22.91043
H          3.66963       44.01901       20.62424
H          5.94104       43.35933       22.52527
H          3.91870       44.00659       23.68655
H          4.29956       42.27433       23.95811
N          5.19708       41.62994       19.98421
C          5.70065       40.48439       19.23800
C          4.88075       39.21179       19.28450
O          5.29949       38.26315       18.63564
H          4.92228       42.44016       19.42252
H          6.73948       40.27033       19.57023
H          5.75665       40.77212       18.16575
N          3.72760       39.08188       19.99862
C          2.99076       37.81483       20.03997
C          2.41939       37.40432       18.68059
O          2.12129       36.23022       18.50966
C          1.87798       37.83357       21.11513
C          0.65026       38.67734       20.72490
N         -0.29219       38.77122       21.83059
O          1.04835       39.94276       20.27889
H          3.41176       39.87491       20.56734
H          3.72908       37.04545       20.36147
H          2.31344       38.19932       22.07113
H          1.52292       36.79278       21.28152
H         -0.49350       37.80674       22.18364
H         -1.18956       39.11586       21.43108
N          2.17234       38.32485       17.69923
C          1.61332       37.99846       16.39203
C          0.19974       38.53129       16.19341
O         -0.34677       38.32691       15.12055
H          2.36061       39.31700       17.88958
H          1.56284       36.89779       16.24403
H          2.28693       38.40921       15.60998
N         -0.48238       39.14308       17.20470
C         -1.90073       39.49194       17.15629
C         -2.12712       40.91084       17.63159
O         -1.62703       41.24786       18.69028
C         -2.63758       38.55916       18.13785
C         -2.58336       37.12458       17.68412
C         -1.84480       36.17186       18.40452
C         -3.28417       36.72778       16.53382
C         -1.80780       34.84138       17.97657
C         -3.25452       35.39642       16.11423
C         -2.51516       34.44771       16.83485
O         -2.48024       33.15874       16.44195
H         -0.01526       39.26882       18.10863
H         -2.33862       39.35741       16.14353
H         -3.70619       38.85101       18.23893
H         -2.16931       38.66416       19.14219
H         -1.29193       36.45859       19.29088
H         -3.86432       37.44789       15.96978
H         -1.23161       34.11506       18.53545
H         -3.80867       35.10434       15.23118
H         -2.96500       32.84577       15.66478
N         -2.96110       41.76337       16.96346
C         -3.33236       43.07037       17.51139
C         -4.80782       43.10363       17.87424
O         -5.60612       42.39982       17.27400
C         -2.96347       44.25326       16.57162
C         -3.73434       44.20431       15.22530
C         -1.44321       44.29115       16.36146
C         -3.52269       45.44694       14.35747
H         -3.40364       41.44736       16.08871
H         -2.78496       43.24799       18.46322
H         -3.25340       45.19185       17.09704
H         -4.82422       44.15195       15.43113
H         -3.44603       43.30287       14.64424
H         -1.10418       43.38503       15.81743
H         -1.13721       45.18942       15.78999
H         -0.92611       44.33763       17.34345
H         -3.82872       46.35968       14.91254
H         -2.46703       45.54648       14.03593
H         -4.14650       45.36612       13.44226
N         -5.22514       43.94512       18.86054
C         -6.61369       44.14279       19.25320
C         -6.98893       45.60506       19.04058
O         -6.16749       46.37201       18.56151
C         -6.78381       43.72230       20.72545
O         -5.98851       44.51841       21.56188
H         -4.51725       44.49372       19.36292
H         -7.29568       43.51509       18.64015
H         -6.48605       42.65557       20.83403
H         -7.85271       43.81630       21.01997
H         -6.26612       44.30836       22.49149
N         -8.22214       46.06531       19.39576
C         -8.61823       47.46735       19.27526
C         -7.68134       48.36868       20.05643
O         -7.23419       49.36971       19.51433
C        -10.04906       47.65844       19.78575
H         -8.89878       45.39695       19.79145
H         -8.60750       47.76890       18.20375
H        -10.12860       47.37661       20.85727
H        -10.35347       48.72114       19.66915
H        -10.74733       47.02941       19.19402
N         -7.31762       48.05238       21.33026
C         -6.39200       48.85064       22.12636
C         -5.04764       49.01072       21.43494
O         -4.60335       50.13753       21.26489
C         -6.18140       48.19800       23.49982
H         -7.70419       47.18869       21.74354
H         -6.83439       49.85729       22.29986
H         -5.74323       47.18178       23.39522
H         -5.49844       48.81793       24.11962
H         -7.15215       48.11006       24.03234
N         -4.33753       47.92076       21.02263
C         -2.99771       48.01802       20.43368
C         -3.00098       48.77203       19.10632
O         -1.92977       49.15246       18.65450
C         -2.37669       46.61104       20.23467
C         -2.25919       45.84140       21.56763
C         -1.87960       44.39615       21.39313
O         -2.65830       43.52631       21.74662
O         -0.67732       44.03793       20.91092
H         -4.76636       46.99561       21.16299
H         -2.36010       48.58373       21.14967
H         -1.36695       46.68968       19.77610
H         -3.02295       46.05852       19.52745
H         -3.23241       45.84326       22.09417
H         -1.52321       46.34576       22.22871
N         -4.15609       49.01231       18.42083
C         -4.22718       49.76191       17.18385
H         -4.92920       50.61285       17.31769
H         -3.24216       50.16799       16.87502
H         -4.61574       49.10637       16.37658
H         -5.04127       48.63731       18.77394
Ca        -0.12923       41.82684       20.86148
O         -3.02498       40.73371       21.36105
H         -3.63830       40.93464       22.11076
H         -3.60591       40.67832       20.56212
O         -0.61588       41.75662       23.86223
H         -0.13355       41.00149       24.28349
H         -1.55610       41.64804       24.15143

Ca 1.0



