%chk=holoCaM-CaMKII.loop4.water1.frame397.chk
%nprocshared=20
%mem=10GB
%nosave
#b3lyp/svp scf=(tight,noincore,xqc) Test 
#IOP(5/87=12) Density=Current Pop=(MK,readradii) iop(6/33=2) iop(6/42=6)

holoCaM-CaMKII.loop4.water1.frame397 

   -3  1 
C         46.48820       80.81814       80.65828
C         47.15371       80.54834       81.97715
O         48.35970       80.36710       82.00294
H         45.39455       80.97221       80.77854
H         46.92402       81.72827       80.19751
H         46.64420       79.95231       79.98078
N         46.41799       80.50116       83.12019
C         46.97255       80.21474       84.44113
C         47.57859       78.81627       84.46614
O         46.89067       77.87996       84.08730
C         45.83489       80.29240       85.47668
C         46.28733       80.11547       86.89238
O         45.44515       80.06377       87.76828
O         47.58205       80.25328       87.23043
H         45.40343       80.67557       83.04283
H         47.73491       80.98615       84.69168
H         45.08782       79.50327       85.24428
H         45.32738       81.28057       85.41119
N         48.85178       78.60420       84.92009
C         49.50145       77.28880       84.88924
C         49.72425       76.72352       86.29946
O         49.95880       75.52305       86.39641
C         50.82859       77.36216       84.05363
C         50.59503       78.11882       82.71686
C         51.40891       75.95728       83.78631
C         51.84610       78.30558       81.85504
H         49.38195       79.40647       85.27228
H         48.81678       76.57698       84.38023
H         51.57495       77.94890       84.63480
H         50.25229       79.14231       82.96017
H         49.81042       77.61128       82.11499
H         51.64972       75.42569       84.72479
H         50.69228       75.34886       83.19376
H         52.36821       76.01686       83.23577
H         52.64544       78.81146       82.43587
H         52.22183       77.33832       81.46682
H         51.59365       78.93894       80.97771
N         49.65729       77.48331       87.43537
C         49.82849       76.93615       88.78562
C         48.60773       77.16259       89.68564
O         48.65077       76.77188       90.83970
C         51.12866       77.46864       89.43049
C         51.18053       78.94561       89.71507
O         50.24345       79.68316       89.45643
O         52.28686       79.45610       90.28843
H         49.49976       78.49764       87.34806
H         49.96473       75.83267       88.73642
H         51.98038       77.20909       88.76423
H         51.28685       76.93791       90.39483
N         47.46265       77.73040       89.20520
C         46.24037       77.87001       89.98264
C         46.31580       78.88524       91.10364
O         46.00234       78.53022       92.23189
H         47.41095       77.99629       88.21761
H         45.93026       76.87517       90.36730
H         45.43192       78.20744       89.30513
N         46.65857       80.18342       90.85869
C         46.57518       81.25196       91.85828
C         45.67965       82.41096       91.39214
O         45.60955       83.41525       92.08550
C         47.98307       81.72634       92.27895
C         48.83583       82.34446       91.21023
O         50.06060       82.79520       91.53835
O         48.44564       82.44863       90.06077
H         46.96978       80.43081       89.90781
H         46.12043       80.86862       92.79880
H         48.53372       80.85554       92.69592
H         47.87055       82.47275       93.09602
N         44.91098       82.31331       90.26596
C         43.96822       83.33184       89.82558
C         44.57702       84.53694       89.13174
O         43.79675       85.35608       88.66710
H         44.89613       81.43026       89.74468
H         43.32319       83.64684       90.67459
H         43.30298       82.86419       89.06613
N         45.92285       84.72141       88.98712
C         46.49716       85.83305       88.22064
C         47.41044       85.26685       87.10463
O         46.76315       84.17526       86.54842
C         47.18155       86.82964       89.18384
C         48.30553       86.24750       90.06381
C         49.53104       85.89635       89.27072
N         50.20900       86.85825       88.60766
O         49.92684       84.74210       89.23453
H         46.56889       84.04024       89.40431
H         45.68720       86.39802       87.70911
H         46.38860       87.19419       89.87275
H         47.54990       87.71535       88.62603
H         47.93090       85.36642       90.62654
H         48.60195       87.00910       90.81630
H         49.90642       87.84210       88.64203
H         51.04416       86.61836       88.06382
N         47.72804       86.23745       86.03728
C         48.59102       85.63593       84.97846
C         49.84030       86.49351       84.76711
O         49.71888       87.63095       84.33316
C         47.80635       85.47862       83.62768
C         48.66878       84.80575       82.54257
C         46.51160       84.66079       83.76700
H         48.19515       87.05907       86.48353
H         48.92585       84.61976       85.29099
H         47.51658       86.49028       83.26754
H         49.58338       85.39233       82.33544
H         48.95881       83.77919       82.85389
H         48.10248       84.73250       81.58834
H         46.73202       83.62218       84.09765
H         45.81297       85.14719       84.47816
H         45.98471       84.60101       82.79017
N         51.07630       86.00489       85.07567
C         52.31773       86.75932       84.89117
C         52.62197       86.98009       83.41872
O         51.91658       86.46648       82.56665
C         53.50729       85.96448       85.49259
C         53.41006       85.81266       86.98454
N         53.28256       84.59118       87.55236
O         53.46680       86.80721       87.69206
H         51.13363       85.06185       85.48238
H         52.23192       87.74327       85.40258
H         54.47422       86.46976       85.28983
H         53.54591       84.96599       85.00942
H         53.23714       83.73874       86.97523
H         53.22451       84.49894       88.57678
N         53.71689       87.70288       83.05144
C         54.22283       87.74283       81.68344
C         54.69194       86.34634       81.29494
O         54.32403       85.84918       80.24120
C         55.43296       88.69931       81.58583
C         55.96439       88.74725       80.17147
C         55.19368       89.31282       79.14159
C         57.22364       88.20365       79.86708
C         55.67431       89.33247       77.82921
C         57.69793       88.21551       78.55226
C         56.92382       88.78060       77.52831
O         57.36737       88.79556       76.25527
H         54.25657       88.18323       83.78838
H         53.43119       88.11185       80.99378
H         56.22532       88.34371       82.28129
H         55.15097       89.72598       81.90460
H         54.22147       89.73931       79.35495
H         57.83061       87.75330       80.64275
H         55.07165       89.77228       77.04450
H         58.66438       87.78090       78.33036
H         58.22106       88.41531       76.00358
N         55.50695       85.66306       82.15117
C         56.05720       84.32868       81.92852
C         54.98100       83.35818       81.48699
O         55.12629       82.73955       80.44149
C         56.72093       83.85664       83.24933
C         57.35303       82.46213       83.18254
C         57.95791       82.10687       84.51324
O         59.15348       81.87980       84.60550
O         57.18134       82.03688       85.61271
H         55.72708       86.12102       83.04917
H         56.83095       84.38120       81.13066
H         55.95551       83.86039       84.05836
H         57.51256       84.58791       83.52737
H         58.13540       82.44982       82.39354
H         56.58288       81.70034       82.93718
N         53.86575       83.18736       82.23990
C         52.78913       82.26924       81.89049
C         52.17355       82.67624       80.56178
O         52.14141       81.86231       79.64960
C         51.74481       82.21529       83.03084
C         52.39825       81.69090       84.33038
C         51.43649       81.58019       85.47263
O         51.31647       80.52205       86.06598
O         50.75788       82.65852       85.89982
H         53.78454       83.75203       83.09491
H         53.20138       81.24036       81.78647
H         50.92169       81.52899       82.73646
H         51.31694       83.22728       83.20409
H         53.20461       82.37323       84.66184
H         52.85171       80.69374       84.13864
N         51.72126       83.94530       80.37002
C         51.19380       84.44013       79.11399
H         50.17038       84.83787       79.27347
H         51.84131       85.26569       78.74633
H         51.15468       83.65537       78.33029
H         51.78901       84.61115       81.14456
Ca        48.02130       82.41441       87.13853
O         51.89348       82.25275       89.25520
H         52.57087       81.71083       88.77846
H         52.34844       82.54109       90.08622

Ca 1.0



