%chk=holoCaM.loop1.water2.frame263.chk
%nprocshared=20
%mem=10GB
%nosave
#b3lyp/svp scf=(tight,noincore,xqc) Test 
#IOP(5/87=12) Density=Current Pop=(MK,readradii) iop(6/33=2) iop(6/42=6)

holoCaM.loop1.water2.frame263 

   0  1 
C         40.64186       20.96966       52.27496
C         40.30661       20.57905       50.86890
O         40.99083       21.00476       49.95280
H         41.53257       21.63357       52.29544
H         39.78190       21.52479       52.70798
H         40.84241       20.06683       52.88630
N         39.23871       19.77413       50.62130
C         38.77741       19.46069       49.27350
C         38.31298       20.74659       48.60620
O         37.49167       21.44415       49.18613
C         37.63344       18.43415       49.34214
C         37.10024       18.11085       47.98013
O         37.83037       17.65059       47.11742
O         35.80641       18.34585       47.70674
H         38.71370       19.40283       51.42918
H         39.60575       18.99170       48.69435
H         36.80529       18.83063       49.96928
H         38.00852       17.49731       49.81044
N         38.80546       21.12283       47.39049
C         38.49955       22.40699       46.76486
C         37.65399       22.20335       45.51847
O         36.53640       22.69786       45.47207
C         39.80831       23.17353       46.43036
C         40.79569       23.30638       47.61045
C         40.21983       23.97378       48.86931
C         39.80000       25.42914       48.63025
N         39.20765       26.00073       49.83787
H         39.43405       20.47537       46.89899
H         37.90862       23.03990       47.46185
H         39.54998       24.17594       46.03126
H         40.36254       22.65008       45.62564
H         41.69221       23.87082       47.27257
H         41.14588       22.29028       47.88031
H         40.99685       23.95402       49.66519
H         39.35596       23.38700       49.23971
H         39.05049       25.48461       47.81347
H         40.69287       26.02325       48.33278
H         38.94962       26.99658       49.65245
H         38.34169       25.47043       50.09081
H         39.88822       25.96421       50.63084
N         38.12872       21.48326       44.46397
C         37.38117       21.24654       43.22198
C         36.12113       20.38637       43.38847
O         35.41607       20.21317       42.40366
C         38.31957       20.62790       42.16031
C         38.94810       19.33502       42.60620
O         38.61598       18.79090       43.79485
O         39.83777       18.83614       41.93708
H         39.09223       21.12616       44.53675
H         37.06032       22.23526       42.82425
H         39.14422       21.35641       41.98938
H         37.79224       20.48566       41.19280
N         35.74256       19.85271       44.58523
C         34.47999       19.15565       44.78115
C         34.43499       17.76376       44.18925
O         33.52931       17.47143       43.42266
H         36.31833       20.01005       45.42273
H         33.64291       19.78492       44.40750
H         34.31591       19.02709       45.86872
N         35.34874       16.83052       44.57431
C         35.28222       15.40931       44.22472
C         35.24800       14.51603       45.47487
O         35.22932       13.30070       45.32323
C         36.46067       15.03076       43.30515
C         37.79638       15.46885       43.83011
O         38.19565       15.12751       45.06558
O         38.52226       16.15699       43.13336
H         36.12384       17.14015       45.17826
H         34.35421       15.17998       43.65636
H         36.30704       15.50451       42.31080
H         36.46459       13.93016       43.14793
N         35.21869       15.03224       46.73652
C         35.20847       14.23719       47.95228
C         36.48712       13.44825       48.14332
O         36.41327       12.28676       48.49066
H         35.18673       16.05007       46.86913
H         34.31623       13.57312       47.98836
H         35.13868       14.93658       48.81410
N         37.69031       14.08075       48.01191
C         39.01206       13.49474       48.30821
C         40.07973       14.60758       48.32341
O         39.82200       15.70843       47.87601
C         39.47065       12.36158       47.33131
C         38.72562       11.02046       47.40269
O         39.49938       12.81503       46.00620
H         37.63172       15.07372       47.76422
H         38.97244       13.10137       49.34609
H         40.51180       12.09744       47.61799
H         38.56650       12.80539       45.66746
H         39.25396       10.27950       46.76489
H         38.70928       10.63845       48.44448
H         37.70085       11.08930       46.99287
N         41.30255       14.38266       48.90525
C         42.30707       15.44076       49.05062
C         43.61574       14.99363       48.41086
O         44.22586       14.04910       48.88479
C         42.47514       15.79517       50.56198
C         41.11431       16.28396       51.13720
C         43.56979       16.86225       50.76474
C         41.12908       16.57430       52.63875
H         41.49837       13.46281       49.31904
H         41.97316       16.36835       48.53885
H         42.78427       14.87555       51.10733
H         40.34597       15.49746       50.98084
H         40.78402       17.19927       50.59861
H         43.29132       17.81027       50.26019
H         43.73717       17.06292       51.84166
H         44.54277       16.51182       50.36620
H         41.43359       15.66768       53.20303
H         41.80747       17.41461       52.88639
H         40.10763       16.86719       52.96296
N         44.09090       15.63972       47.30313
C         45.34265       15.27580       46.63728
C         46.55274       15.75791       47.43057
O         46.39863       16.45200       48.42469
C         45.40620       15.88608       45.20340
C         44.28781       15.36571       44.30426
O         45.33240       17.28432       45.26956
H         43.51591       16.38712       46.89713
H         45.38551       14.16931       46.52997
H         46.36830       15.58663       44.73118
H         45.62339       17.63465       44.38752
H         44.40737       15.77591       43.27913
H         44.31592       14.25758       44.24625
H         43.31153       15.70332       44.69198
N         47.80767       15.45525       46.99082
C         49.03720       16.01171       47.55669
C         49.05512       17.52085       47.41209
O         49.48118       18.19726       48.33758
C         50.28610       15.43274       46.84840
C         50.45641       13.94242       47.18823
O         50.18195       15.64254       45.45831
H         47.88858       14.83270       46.17363
H         49.11670       15.75943       48.63862
H         51.18845       15.96318       47.23029
H         50.82641       15.04466       44.99881
H         50.55345       13.81603       48.28816
H         49.59370       13.34502       46.83026
H         51.38365       13.55059       46.71952
N         48.59372       18.11589       46.27550
C         48.55640       19.56240       46.09463
C         47.71584       20.18796       47.19792
O         48.17793       21.08160       47.89264
C         47.93901       19.96105       44.71997
C         48.53418       19.28545       43.46758
C         50.04399       19.47775       43.30134
C         50.52566       18.78276       42.01747
N         51.97287       18.90927       41.85847
H         48.22654       17.50897       45.53136
H         49.59342       19.96234       46.13414
H         48.02935       21.06444       44.60913
H         46.85518       19.71932       44.70684
H         48.01420       19.70724       42.57859
H         48.31092       18.19894       43.48106
H         50.57000       19.02752       44.16977
H         50.28197       20.56239       43.25250
H         50.01705       19.23298       41.13540
H         50.26044       17.70200       42.05744
H         52.26228       18.42567       40.97746
H         52.24192       19.91774       41.79742
H         52.46157       18.45867       42.66603
N         46.44411       19.74274       47.38877
C         45.49098       20.31547       48.33352
C         45.82480       19.99891       49.78489
O         45.16773       20.54428       50.66134
C         44.06944       19.79756       48.00319
C         43.68214       20.17194       46.56186
C         42.35458       19.63550       46.14980
O         42.09690       18.31349       46.15754
O         41.51849       20.40092       45.70662
H         46.13027       18.97691       46.78368
H         45.49191       21.42030       48.19761
H         43.32791       20.23895       48.70425
H         44.05002       18.69072       48.11855
H         44.40033       19.76084       45.82988
H         43.68992       21.27912       46.45671
N         46.80135       19.11346       50.12612
C         47.11509       18.79531       51.50113
H         47.46788       19.70564       52.02959
H         46.21720       18.38803       52.01234
H         47.91936       18.02895       51.53577
H         47.33054       18.62560       49.39766
Ca        40.22104       17.82938       45.02675
O         41.23189       14.54019       44.98574
H         40.76548       15.07997       44.30125
H         41.66514       13.81278       44.47223
O         42.43791       17.75233       43.08216
H         42.00088       17.23499       42.35984
H         43.10674       18.31620       42.61990

Ca 1.0



