%chk=holoCaM-CaMKII.loop1.water2.frame405.chk
%nprocshared=20
%mem=10GB
%nosave
#b3lyp/svp scf=(tight,noincore,xqc) Test 
#IOP(5/87=12) Density=Current Pop=(MK,readradii) iop(6/33=2) iop(6/42=6)

holoCaM-CaMKII.loop1.water2.frame405 

   0  1 
C         41.82820       56.29417       47.07111
C         42.04588       55.07521       46.22944
O         41.28335       54.85992       45.29767
H         40.82038       56.24880       47.53304
H         42.58829       56.37016       47.87658
H         41.89908       57.19794       46.43048
N         43.08243       54.22993       46.48793
C         43.34687       53.05802       45.66819
C         42.19609       52.08520       45.78495
O         41.83416       51.72098       46.89601
C         44.65871       52.37895       46.08593
C         45.19297       51.45694       45.02321
O         44.59426       51.33913       43.81587
O         46.29138       50.96055       45.19143
H         43.71861       54.44743       47.27083
H         43.48003       53.41494       44.62114
H         44.54987       51.85698       47.06180
H         45.43628       53.16610       46.20146
N         41.57530       51.62532       44.66962
C         40.39469       50.78483       44.69567
C         40.78568       49.36991       44.31530
O         40.58273       48.48262       45.13380
C         39.31638       51.46066       43.82309
C         37.92373       50.82376       43.94423
C         36.82064       51.71540       43.33668
C         36.92773       51.90645       41.81584
N         35.86358       52.78801       41.33072
H         41.94953       51.89486       43.75427
H         39.98666       50.74141       45.73130
H         39.64628       51.50365       42.76326
H         39.22756       52.50589       44.19747
H         37.68201       50.72710       45.02529
H         37.91499       49.80932       43.49191
H         36.84990       52.71069       43.83432
H         35.83488       51.25398       43.56249
H         36.84472       50.91604       41.31692
H         37.90674       52.35723       41.54802
H         35.96459       53.73856       41.75677
H         35.93618       52.87814       40.29160
H         34.92468       52.39513       41.57181
N         41.40239       49.07313       43.13189
C         41.86020       47.71343       42.83394
C         43.03684       47.26368       43.71371
O         43.37014       46.08754       43.66948
C         42.17310       47.52690       41.33333
C         43.32866       48.33028       40.79705
O         44.04177       49.15642       41.58631
O         43.62775       48.22386       39.61854
H         41.53323       49.82094       42.43436
H         41.00396       47.03242       43.04072
H         41.26160       47.79208       40.75416
H         42.38817       46.45130       41.14883
N         43.70045       48.12346       44.54471
C         44.73610       47.70319       45.47808
C         45.96246       47.11382       44.81709
O         46.27046       45.96276       45.09301
H         43.43391       49.11619       44.56902
H         44.29738       46.96027       46.18015
H         45.06310       48.57641       46.08301
N         46.73930       47.85603       43.97452
C         47.97847       47.34885       43.37712
C         49.22538       48.12305       43.82616
O         50.31461       47.71431       43.44826
C         47.84113       47.26719       41.83755
C         47.62533       48.57349       41.12361
O         47.59139       49.73425       41.79205
O         47.47982       48.58094       39.91211
H         46.43850       48.81689       43.76198
H         48.15425       46.30484       43.71560
H         46.97683       46.60749       41.60617
H         48.75462       46.79471       41.41599
N         49.15996       49.21957       44.64162
C         50.32732       49.92931       45.15869
C         50.46287       51.34066       44.61298
O         51.35339       52.05163       45.05538
H         48.24590       49.57479       44.93880
H         51.27120       49.39515       44.91916
H         50.23720       49.96908       46.26571
N         49.66340       51.79076       43.60827
C         49.79148       53.08758       42.95278
C         48.45949       53.87333       43.04859
O         47.33847       53.17981       43.50354
C         50.29143       52.87293       41.49160
C         51.78152       52.52035       41.48774
O         49.58879       51.84893       40.83889
H         48.94802       51.16028       43.23038
H         50.53890       53.74220       43.45204
H         50.21539       53.80959       40.89925
H         48.62684       52.01598       40.99016
H         51.97840       51.58877       42.05708
H         52.13639       52.38755       40.44364
H         52.36593       53.35134       41.94153
N         48.22244       54.88450       42.01428
C         47.00451       55.72792       42.06688
C         46.99450       56.51407       40.75596
O         47.98924       57.14742       40.42669
C         46.91405       56.67548       43.32727
C         46.51658       55.87213       44.60543
C         45.86619       57.79212       43.09389
C         46.40243       56.68525       45.89465
H         49.06016       55.51263       42.01347
H         46.09524       55.08941       42.07098
H         47.89448       57.17752       43.47561
H         47.27798       55.11561       44.83712
H         45.54055       55.36316       44.43080
H         44.85575       57.36280       42.93453
H         45.82878       58.50035       43.94380
H         46.13373       58.41769       42.21802
H         45.60060       57.44691       45.84203
H         46.13874       55.99802       46.72811
H         47.37428       57.16783       46.12633
N         45.87784       56.53871       39.97491
C         45.79567       57.20353       38.67957
C         45.00309       58.49522       38.79175
O         44.52189       58.82518       39.86912
C         45.11995       56.25143       37.64711
C         45.84979       54.91687       37.52041
O         43.79264       56.00438       38.03395
H         45.02794       56.08352       40.32382
H         46.81256       57.47349       38.31776
H         45.12668       56.74312       36.64873
H         43.31212       55.65879       37.23688
H         45.81300       54.38518       38.49056
H         45.34206       54.28237       36.76165
H         46.90353       55.07115       37.21164
N         44.80760       59.26815       37.68709
C         43.95970       60.45772       37.66568
C         42.55588       60.09346       38.11604
O         41.98221       60.79451       38.93476
C         43.88949       61.07405       36.24099
C         45.24396       61.60902       35.76525
O         43.41275       60.12445       35.31980
H         45.24000       58.96024       36.80336
H         44.36880       61.23485       38.35075
H         43.18564       61.93938       36.29245
H         42.97196       60.62447       34.58430
H         45.61860       62.38291       36.46732
H         45.99667       60.79860       35.68296
H         45.12579       62.07322       34.76270
N         41.95984       58.97944       37.61091
C         40.61138       58.53762       37.94003
C         40.46739       58.25667       39.43219
O         39.57926       58.81489       40.06176
C         40.30861       57.26609       37.10676
C         38.84667       56.80037       37.08932
C         37.93294       57.79829       36.35823
C         36.53824       57.20657       36.12441
N         35.68822       58.14859       35.39635
H         42.50289       58.41492       36.94043
H         39.90922       59.34085       37.63391
H         40.94813       56.43376       37.47068
H         40.59267       57.45241       36.04671
H         38.47660       56.59433       38.11648
H         38.83227       55.84624       36.51730
H         38.37355       58.03374       35.36382
H         37.84568       58.73866       36.94168
H         36.06635       56.95509       37.09916
H         36.63419       56.27193       35.52661
H         34.75570       57.70762       35.22645
H         35.55590       59.02084       35.95770
H         36.12013       58.38614       34.47324
N         41.31806       57.39219       40.05877
C         41.21584       57.01162       41.47085
C         41.45238       58.18014       42.42521
O         41.22463       58.00625       43.61487
C         42.22766       55.88348       41.79520
C         41.95522       54.60320       40.97918
C         43.04070       53.57952       41.14223
O         42.74887       52.34490       41.58143
O         44.18343       53.83693       40.80642
H         42.05840       56.96811       39.48698
H         40.18793       56.62532       41.65007
H         42.19619       55.62211       42.87544
H         43.23956       56.27202       41.57489
H         41.90099       54.82527       39.89633
H         40.97895       54.17495       41.29372
N         41.91442       59.38886       41.99874
C         42.10394       60.50691       42.89715
H         41.13211       60.79224       43.35358
H         42.82857       60.24096       43.69522
H         42.49777       61.38066       42.33430
H         42.15263       59.53129       41.01260
Ca        46.00539       51.94199       42.16915
O         44.25801       51.21564       39.02576
H         43.30911       50.93504       39.04992
H         44.62430       50.78129       38.21505
O         47.13380       52.39612       39.12934
H         47.94902       52.88798       38.85612
H         46.76367       52.04415       38.28340

Ca 1.0



