%chk=holoCaM.loop4.water3.frame158.chk
%nprocshared=20
%mem=10GB
%nosave
#b3lyp/svp scf=(tight,noincore,xqc) Test 
#IOP(5/87=12) Density=Current Pop=(MK,readradii) iop(6/33=2) iop(6/42=6)

holoCaM.loop4.water3.frame158 

   -3  1 
C         74.55642       97.18713       81.40119
C         73.58856       96.06682       81.62976
O         74.00733       95.03704       82.13749
H         75.37169       96.85711       80.72680
H         74.05338       98.07552       80.96667
H         74.99349       97.48270       82.38067
N         72.26425       96.21765       81.33518
C         71.25221       95.24419       81.71777
C         70.37994       94.83674       80.53505
O         69.74939       95.70197       79.94111
C         70.38824       95.90138       82.81699
C         69.48024       94.95030       83.53046
O         69.53568       93.75692       83.30816
O         68.64095       95.41183       84.47505
H         71.94407       97.10791       80.92345
H         71.73805       94.34283       82.15157
H         69.79068       96.72561       82.37256
H         71.04912       96.34007       83.59414
N         70.26132       93.52668       80.16758
C         69.37096       93.04595       79.10822
C         68.28743       92.11681       79.69510
O         67.40927       91.69982       78.95839
C         70.23224       92.36128       77.98687
C         71.32514       93.35462       77.49631
C         69.37739       91.87582       76.79299
C         72.29425       92.77873       76.46083
H         70.82265       92.82688       80.67154
H         68.83198       93.90357       78.64831
H         70.74243       91.47497       78.42693
H         71.95144       93.66169       78.36029
H         70.84631       94.26499       77.07430
H         70.00114       91.37888       76.02481
H         68.65080       91.09748       77.08773
H         68.83834       92.72638       76.32384
H         72.79140       91.86894       76.85872
H         71.78261       92.53966       75.50742
H         73.07237       93.53695       76.23130
N         68.27525       91.76665       81.01976
C         67.32090       90.83843       81.61553
C         66.47221       91.50239       82.70359
O         65.25641       91.51278       82.55847
C         68.05163       89.54723       82.08231
C         69.26018       89.64243       83.00380
O         69.75720       90.81785       83.44689
O         69.79860       88.60626       83.35304
H         68.99177       92.13816       81.63906
H         66.59612       90.48682       80.84592
H         68.41349       89.03317       81.16447
H         67.29522       88.88290       82.55580
N         67.02231       92.06181       83.81641
C         66.28065       92.66299       84.90718
C         66.52404       91.94200       86.22395
O         65.99266       92.39748       87.22597
H         68.02845       92.07719       83.92841
H         65.18779       92.66182       84.70758
H         66.60656       93.71995       85.00638
N         67.26264       90.78981       86.30592
C         67.36938       90.01192       87.54091
C         68.15461       90.69181       88.66306
O         68.10536       90.18360       89.77460
C         67.90490       88.58518       87.25625
C         69.30155       88.51114       86.70403
O         70.01359       89.62153       86.47402
O         69.79271       87.42456       86.44552
H         67.66697       90.38969       85.44848
H         66.33120       89.87199       87.91416
H         67.22887       88.10200       86.51818
H         67.87218       87.99242       88.19456
N         68.90016       91.81709       88.46640
C         69.58571       92.52237       89.54422
C         71.09770       92.47008       89.44479
O         71.73712       93.14163       90.24247
H         68.97995       92.20623       87.51881
H         69.31284       92.11961       90.54368
H         69.25375       93.58318       89.51865
N         71.74612       91.67362       88.54201
C         73.19781       91.58203       88.44807
C         73.65524       91.90196       86.99691
O         73.39335       90.80371       86.16276
C         73.66601       90.16503       88.87321
C         73.29876       89.81734       90.32258
C         73.83311       88.45641       90.69918
N         73.42008       87.34052       90.05175
O         74.64978       88.36094       91.60315
H         71.19758       91.07830       87.91581
H         73.67194       92.32405       89.12865
H         74.76954       90.09431       88.77682
H         73.21098       89.40905       88.19756
H         72.19583       89.82169       90.45682
H         73.73918       90.58364       90.99774
H         72.72635       87.39286       89.29207
H         73.79444       86.41606       90.31321
N         75.08164       92.27987       86.96822
C         75.72753       92.29083       85.64189
C         76.38882       90.94227       85.36569
O         77.14624       90.46639       86.20058
C         76.76229       93.44405       85.57123
C         77.33884       93.55977       84.14809
C         76.12515       94.79163       85.95812
H         75.67461       91.81889       87.69564
H         74.97152       92.50585       84.86089
H         77.59017       93.24416       86.28682
H         78.07692       94.38728       84.09489
H         77.85328       92.62365       83.84857
H         76.52604       93.76479       83.41584
H         75.29128       95.05024       85.27426
H         75.73730       94.76301       86.99835
H         76.88134       95.60336       85.90664
N         76.16238       90.28947       84.19091
C         76.68310       88.95942       83.87837
C         77.72454       89.01503       82.76434
O         77.92875       90.05970       82.16367
C         75.45998       88.08787       83.51493
C         75.71274       86.66492       83.09509
N         76.27938       85.77634       83.93996
O         75.36190       86.29951       81.98278
H         75.57614       90.75257       83.48325
H         77.19940       88.53279       84.76623
H         74.91258       88.59616       82.68824
H         74.80351       88.05556       84.40644
H         76.56823       86.05747       84.88705
H         76.42010       84.80019       83.64280
N         78.47994       87.90828       82.49972
C         79.54027       87.84028       81.49379
C         79.01649       88.04778       80.09103
O         79.70564       88.66767       79.29268
C         80.35611       86.53370       81.63826
C         79.56358       85.24351       81.56011
C         79.11280       84.72376       80.33392
C         79.30143       84.52486       82.74086
C         78.41860       83.50623       80.29583
C         78.59802       83.32046       82.70177
C         78.15855       82.80246       81.48228
O         77.49572       81.62815       81.46517
H         78.32440       87.08031       83.08746
H         80.26635       88.65971       81.69866
H         80.82118       86.59316       82.64665
H         81.19806       86.50033       80.91285
H         79.31537       85.24463       79.40710
H         79.63403       84.90247       83.69972
H         78.08862       83.10642       79.34517
H         78.39867       82.78816       83.62363
H         77.18736       81.21967       80.64425
N         77.78441       87.60087       79.73032
C         77.18254       87.89879       78.43777
C         77.01751       89.40720       78.30248
O         77.46607       89.98267       77.32157
C         75.82174       87.17178       78.32389
C         75.20565       87.28499       76.92174
C         73.93593       86.48550       76.83133
O         73.95696       85.15598       77.05060
O         72.88289       87.03179       76.54461
H         77.24096       87.05799       80.41670
H         77.83739       87.50367       77.62886
H         75.10824       87.55767       79.08618
H         75.99634       86.09235       78.53089
H         75.91965       86.88467       76.16983
H         74.99866       88.35056       76.68236
N         76.39305       90.10540       79.29288
C         76.14441       91.54825       79.26012
C         77.41838       92.39146       79.31592
O         77.30918       93.59937       79.15317
C         75.24586       91.94465       80.45330
C         73.88007       91.23151       80.40834
C         73.06740       91.44910       81.64808
O         73.52616       92.20214       82.66308
O         71.98495       90.89938       81.75239
H         76.06108       89.56332       80.10379
H         75.60663       91.78627       78.31571
H         75.06840       93.04303       80.46286
H         75.78589       91.67567       81.38607
H         74.00665       90.13543       80.32139
H         73.31178       91.58623       79.52225
N         78.64465       91.85031       79.56856
C         79.86889       92.62475       79.63747
H         80.59031       92.23839       78.88714
H         79.70433       93.70466       79.44004
H         80.31574       92.51789       80.64858
H         78.73123       90.84592       79.74523
Ca        71.52818       91.15654       84.85503
O         72.47460       88.68113       84.27170
H         72.33493       87.99236       83.57642
H         72.21747       88.24659       85.12295
O         72.49271       94.34629       84.67007
H         73.38887       94.01071       84.43793
H         72.66588       95.17233       85.18573
O         70.78987       93.68442       86.62015
H         71.08064       94.47558       87.13827
H         69.92817       93.95091       86.21643

Ca 1.0



