%chk=holoCaM-CaMKII.loop1.water2.frame94.chk
%nprocshared=20
%mem=10GB
%nosave
#b3lyp/svp scf=(tight,noincore,xqc) Test 
#IOP(5/87=12) Density=Current Pop=(MK,readradii) iop(6/33=2) iop(6/42=6)

holoCaM-CaMKII.loop1.water2.frame94 

   0  1 
C          9.04226       42.90278       47.07824
C          7.73751       43.37433       46.52140
O          6.70924       42.79901       46.84493
H          9.52572       43.73512       47.63255
H          8.88213       42.05586       47.77947
H          9.70288       42.57328       46.25103
N          7.69669       44.46010       45.70235
C          6.43881       44.99954       45.21148
C          5.88019       44.06952       44.14528
O          6.40448       44.06963       43.03998
C          6.67007       46.43307       44.68803
C          5.41304       47.18736       44.38544
O          5.49599       48.34012       44.00013
O          4.20089       46.63490       44.57726
H          8.58013       44.95174       45.49324
H          5.75001       45.07527       46.08302
H          7.32055       46.41014       43.78554
H          7.20068       47.01005       45.47746
N          4.83509       43.23084       44.42109
C          4.31055       42.23245       43.48954
C          2.97953       42.67543       42.90850
O          2.06991       41.87185       42.74841
C          4.19776       40.84439       44.17365
C          5.49610       40.14539       44.63916
C          6.45149       39.78744       43.48393
C          7.46224       40.89971       43.17807
N          8.14705       40.66738       41.91010
H          4.40865       43.28666       45.34774
H          4.95015       42.15860       42.58927
H          3.70309       40.13853       43.47004
H          3.52604       40.94857       45.05612
H          5.14530       39.18317       45.07429
H          6.02288       40.68996       45.45032
H          5.84344       39.51612       42.59313
H          7.05666       38.89790       43.76071
H          8.19380       40.97786       44.01313
H          6.97147       41.86101       43.10897
H          8.83595       41.43820       41.75065
H          8.64317       39.74895       41.92185
H          7.44714       40.68739       41.13133
N          2.87032       43.93782       42.42465
C          1.75434       44.40835       41.62019
C          2.17689       45.66885       40.86982
O          2.17300       45.62756       39.64692
C          0.40334       44.49475       42.37426
C          0.35982       45.16707       43.71594
O          1.46652       45.46638       44.41666
O         -0.72981       45.38171       44.22397
H          3.67253       44.57045       42.55863
H          1.57684       43.66299       40.81210
H          0.00792       43.47074       42.54632
H         -0.31437       45.00337       41.69301
N          2.66108       46.77196       41.50849
C          3.25292       47.90253       40.79399
C          2.62384       49.20537       41.21326
O          2.05591       49.90585       40.38873
H          2.69109       46.77300       42.53635
H          3.17600       47.78022       39.69245
H          4.33572       47.94909       41.04461
N          2.70364       49.57798       42.51540
C          2.11070       50.78009       43.09649
C          3.13931       51.62329       43.85300
O          2.73785       52.58258       44.49705
C          0.93077       50.36527       44.01488
C          1.27301       49.39207       45.11142
O          2.41038       48.98764       45.26848
O          0.30324       48.82491       45.84118
H          3.20018       48.93226       43.13789
H          1.66802       51.42466       42.30565
H          0.18107       49.85943       43.36676
H          0.44605       51.26187       44.45413
N          4.47968       51.35793       43.80242
C          5.47702       52.14672       44.51537
C          5.50550       51.91257       46.01675
O          6.31219       52.55870       46.67363
H          4.83008       50.61368       43.18618
H          5.31814       53.22447       44.29276
H          6.48539       51.87051       44.13936
N          4.68973       51.01279       46.63605
C          4.69736       50.75407       48.07313
C          4.95501       49.28323       48.38808
O          4.79312       48.42822       47.52363
C          3.33903       51.19789       48.68959
C          3.22812       52.72136       48.72943
O          2.25047       50.70571       47.94840
H          4.01892       50.48684       46.07012
H          5.51598       51.32191       48.56754
H          3.25626       50.84832       49.74294
H          2.39146       49.73586       47.81564
H          3.29998       53.15452       47.70979
H          2.25084       53.01367       49.17116
H          4.03579       53.14201       49.36518
N          5.35940       48.93184       49.64378
C          5.54496       47.56214       50.11687
C          4.64678       47.37471       51.32714
O          4.85051       48.05310       52.32794
C          7.03791       47.29427       50.49881
C          7.95221       47.41167       49.25358
C          7.20329       45.90765       51.16272
C          9.44632       47.30810       49.58373
H          5.53386       49.69078       50.32336
H          5.25578       46.83212       49.32657
H          7.34858       48.06467       51.24014
H          7.79531       48.40314       48.77956
H          7.68694       46.62517       48.51233
H          8.24398       45.72782       51.49388
H          6.60357       45.84694       52.08738
H          6.89173       45.09406       50.47367
H          9.73300       48.09553       50.31324
H          9.71483       46.31459       49.99540
H         10.04197       47.44811       48.65817
N          3.62649       46.47564       51.31098
C          2.77384       46.23322       52.46887
C          3.52393       45.38211       53.48006
O          4.63790       44.96646       53.20643
C          1.44610       45.53521       52.06326
C          0.67809       46.32624       51.00649
O          1.70113       44.25238       51.57182
H          3.45661       45.94499       50.45195
H          2.49524       47.21137       52.91999
H          0.80602       45.46400       52.97205
H          0.86024       43.73098       51.66335
H         -0.28638       45.82335       50.78530
H          0.47102       47.35352       51.36913
H          1.25784       46.37052       50.06227
N          2.96061       45.05090       54.66819
C          3.59984       44.13551       55.60900
C          3.74127       42.75493       54.97925
O          4.82293       42.18598       55.00696
C          2.79338       44.04302       56.93011
C          2.77243       45.39130       57.66222
O          1.47745       43.61880       56.68051
H          2.03354       45.44005       54.89379
H          4.61241       44.51271       55.88073
H          3.31035       43.30231       57.58550
H          1.11397       43.28149       57.54044
H          2.26711       46.17254       57.05753
H          2.22714       45.28944       58.62354
H          3.80945       45.72382       57.88074
N          2.66040       42.16013       54.40451
C          2.64629       40.79722       53.88033
C          3.63148       40.62427       52.72786
O          4.45253       39.71942       52.77734
C          1.19274       40.43406       53.49012
C          0.91860       38.92456       53.53482
C         -0.59037       38.64958       53.37682
C         -0.99521       37.20963       53.73971
N         -0.86910       36.94627       55.17916
H          1.78192       42.69951       54.38204
H          2.93389       40.12612       54.72058
H          0.89346       40.90482       52.52773
H          0.53517       40.84977       54.28665
H          1.24464       38.58094       54.53575
H          1.50269       38.37335       52.76653
H         -0.87198       38.86683       52.32386
H         -1.18316       39.32589       54.03233
H         -0.39564       36.47776       53.15703
H         -2.06500       37.07891       53.46314
H          0.12342       36.99701       55.49646
H         -1.44595       37.63030       55.72271
H         -1.22241       35.98432       55.38421
N          3.65085       41.51949       51.69686
C          4.62801       41.51509       50.60387
C          6.04426       41.49573       51.15560
O          6.84668       40.69084       50.70299
C          4.44958       42.74704       49.67058
C          3.09804       42.73396       48.92858
C          2.95325       43.85425       47.93171
O          3.09298       45.13845       48.29860
O          2.63964       43.60211       46.78234
H          2.97149       42.28360       51.73704
H          4.49262       40.60480       49.97812
H          5.25597       42.72397       48.90914
H          4.55859       43.68901       50.25369
H          2.26948       42.81628       49.65196
H          2.98515       41.76922       48.38810
N          6.40278       42.31417       52.17984
C          7.72066       42.28775       52.77446
H          8.47932       42.60418       52.02946
H          7.75612       42.98074       53.64258
H          7.95477       41.26324       53.13708
H          5.70218       42.94475       52.58232
Ca         1.01686       46.74321       46.20989
O          0.53111       48.37947       48.70843
H          0.96584       48.84279       49.46837
H         -0.41713       48.29415       48.97454
O         -0.11454       44.62760       47.99898
H         -0.94616       44.79894       48.50666
H         -0.40759       44.56658       47.05521

Ca 1.0



