%chk=holoCaM.loop2.water3.frame491.chk
%nprocshared=20
%mem=10GB
%nosave
#b3lyp/svp scf=(tight,noincore,xqc) Test 
#IOP(5/87=12) Density=Current Pop=(MK,readradii) iop(6/33=2) iop(6/42=6)

holoCaM.loop2.water3.frame491 

   -2  1 
C        -13.99012       69.60732       37.97068
C        -14.36018       69.53153       39.41790
O        -13.51366       69.20112       40.23724
H        -12.92375       69.33313       37.82490
H        -14.62540       68.90404       37.39307
H        -14.15170       70.64078       37.59934
N        -15.62704       69.83581       39.81060
C        -16.03898       69.77982       41.20252
C        -15.94884       68.35387       41.71418
O        -16.59798       67.48073       41.15477
C        -17.47460       70.33610       41.37237
C        -17.84839       70.49190       42.82144
O        -17.01878       70.07345       43.77852
O        -18.84521       71.10648       43.13833
H        -16.30791       70.13611       39.09520
H        -15.36455       70.45101       41.78419
H        -18.22769       69.71586       40.84139
H        -17.48878       71.35762       40.93106
N        -15.16506       68.05144       42.78876
C        -15.10942       66.71750       43.37545
C        -16.47242       66.32829       43.91753
O        -16.99565       65.29873       43.51465
C        -14.06564       66.65909       44.49425
H        -14.60413       68.80489       43.21629
H        -14.78735       65.98953       42.59729
H        -13.06641       66.92238       44.08685
H        -14.31534       67.35928       45.31572
H        -14.01105       65.62982       44.90868
N        -17.12492       67.13185       44.81160
C        -18.45785       66.82401       45.33612
C        -19.51392       66.72819       44.23462
O        -20.60098       66.23741       44.50544
C        -18.91183       67.89834       46.34939
C        -17.95405       68.04038       47.49905
O        -17.39335       69.10542       47.70214
O        -17.71488       66.99688       48.31501
H        -16.65088       67.99109       45.12631
H        -18.39393       65.83688       45.84567
H        -19.91081       67.63674       46.76042
H        -19.00122       68.87461       45.82088
N        -19.27317       67.19993       42.97908
C        -20.20499       67.12362       41.86996
C        -21.47783       67.86859       42.15840
O        -22.54735       67.30036       41.98840
H        -18.38285       67.66512       42.78486
H        -20.41476       66.06199       41.61395
H        -19.73021       67.60010       40.98500
N        -21.42825       69.14553       42.63208
C        -22.61097       69.92717       42.95759
C        -22.60843       71.31504       42.29605
O        -23.62152       71.99236       42.39847
C        -22.70123       70.03580       44.49220
C        -24.07376       70.42660       44.97073
N        -25.12646       69.59819       44.76453
O        -24.23315       71.47499       45.57639
H        -20.50798       69.53345       42.84676
H        -23.50368       69.37807       42.58840
H        -21.92557       70.74582       44.84991
H        -22.48734       69.04429       44.94937
H        -25.00037       68.69518       44.28220
H        -26.06643       69.84407       45.10680
N        -21.52894       71.80944       41.60648
C        -21.53750       73.07552       40.88223
C        -20.51901       74.11392       41.34648
O        -20.40639       75.11170       40.64851
H        -20.67043       71.25449       41.52120
H        -22.53816       73.55718       40.90550
H        -21.31633       72.83600       39.81928
N        -19.78142       74.00487       42.49690
C        -18.84484       75.04812       42.95298
C        -17.42432       74.48766       43.11767
O        -17.28130       73.28397       43.23869
C        -19.39951       75.65904       44.26507
C        -18.60429       76.86853       44.75680
O        -20.72652       76.07806       44.05871
H        -19.93553       73.19392       43.10737
H        -18.79301       75.85644       42.19194
H        -19.37081       74.88927       45.07210
H        -21.31865       75.31687       44.29904
H        -18.60984       77.66857       43.98531
H        -19.07401       77.26872       45.68082
H        -17.55989       76.59323       45.00139
N        -16.31639       75.29560       43.06237
C        -14.93868       74.78174       43.10451
C        -14.14931       75.39782       44.26471
O        -13.98590       76.60871       44.31271
C        -14.22422       75.04807       41.74009
C        -14.97831       74.32520       40.59080
C        -12.74998       74.58976       41.79285
C        -14.39245       74.58969       39.20020
H        -16.44818       76.30812       42.91843
H        -14.94313       73.67830       43.24470
H        -14.23451       76.14318       41.54147
H        -16.03072       74.67864       40.56793
H        -14.98518       73.22741       40.77256
H        -12.20100       75.14712       42.57233
H        -12.67900       73.50108       42.00334
H        -12.21352       74.81649       40.85158
H        -14.37903       75.67970       38.98816
H        -13.36657       74.18135       39.10134
H        -15.01764       74.08477       38.43449
N        -13.58653       74.58581       45.20979
C        -12.71703       75.03473       46.30142
C        -11.27058       75.18549       45.82854
O        -10.98386       74.89873       44.68037
C        -12.73023       73.97531       47.43083
C        -14.10026       73.76662       48.00418
O        -14.63042       72.66853       47.94917
O        -14.73521       74.78425       48.61519
H        -13.75832       73.57817       45.13163
H        -13.09251       75.99864       46.71000
H        -12.08080       74.29243       48.26977
H        -12.33872       73.01060       47.03259
N        -10.29120       75.60560       46.68299
C         -8.86998       75.64865       46.32863
C         -8.29504       74.25296       46.04157
O         -7.78267       74.08001       44.94480
C         -8.04830       76.35260       47.43397
C         -6.56343       76.36094       47.13002
C         -6.06300       76.99909       45.98013
C         -5.66387       75.71581       47.99838
C         -4.69106       76.98534       45.70515
C         -4.29396       75.70600       47.71967
C         -3.80769       76.33988       46.57418
H        -10.56946       75.90583       47.62977
H         -8.76069       76.27097       45.41180
H         -8.22701       75.85098       48.40487
H         -8.40390       77.39946       47.54377
H         -6.73132       77.50320       45.29433
H         -6.02103       75.21456       48.88910
H         -4.31166       77.47496       44.81745
H         -3.60918       75.20538       48.39216
H         -2.74658       76.32960       46.35980
N         -8.30556       73.21388       46.94336
C         -7.71397       71.90207       46.68208
C         -8.31743       71.24052       45.45788
O         -7.57149       70.68493       44.66316
C         -7.95414       71.12308       47.98652
C         -9.18913       71.77869       48.56483
C         -8.91906       73.24611       48.25778
H         -6.61370       71.95811       46.52257
H         -7.98376       70.01610       47.89122
H         -7.12871       71.38137       48.68872
H        -10.07387       71.44108       47.98825
H         -9.38349       71.56402       49.63724
H         -9.87068       73.79474       48.31148
H         -8.18130       73.65444       48.98235
N         -9.64814       71.31593       45.20648
C        -10.28608       70.75055       44.02233
C         -9.66692       71.34179       42.76638
O         -9.17223       70.58631       41.94074
C        -11.81151       70.98203       44.12296
C        -12.35814       70.12806       45.29296
C        -13.78971       70.36352       45.65195
O        -14.51269       71.33516       45.08184
O        -14.30989       69.66534       46.50658
H        -10.23108       71.84416       45.86919
H        -10.11791       69.64962       43.99112
H        -12.32188       70.66880       43.18497
H        -12.00699       72.06537       44.28163
H        -11.78570       70.30346       46.22501
H        -12.23600       69.06090       45.01058
N         -9.59235       72.68584       42.58720
C         -8.91535       73.28265       41.45631
H         -7.84986       72.96379       41.44447
H         -9.40552       72.97760       40.50902
H         -8.94434       74.39029       41.53964
H         -9.98947       73.30579       43.29768
Ca       -16.68810       71.30210       45.59000
O        -18.32161       71.92675       48.89637
H        -18.22812       71.09681       49.42764
H        -19.28172       71.96079       48.65705
O        -17.43482       74.12934       46.92422
H        -16.72521       74.81822       46.89792
H        -18.12105       74.50336       47.53215
O        -19.66231       72.25189       45.87881
H        -20.57240       72.56828       46.10574
H        -19.74575       71.26720       45.82459

Ca 1.0



