%chk=holoCaM.loop2.water1.frame113.chk
%nprocshared=20
%mem=10GB
%nosave
#b3lyp/svp scf=(tight,noincore,xqc) Test 
#IOP(5/87=12) Density=Current Pop=(MK,readradii) iop(6/33=2) iop(6/42=6)

holoCaM.loop2.water1.frame113 

   -2  1 
C         -1.31677      110.29955      -14.30396
C          0.11929      110.40273      -14.72612
O          0.98380      109.89754      -14.02434
H         -1.99283      110.77344      -15.04785
H         -1.59339      109.22603      -14.22692
H         -1.46322      110.79023      -13.32156
N          0.44302      111.00219      -15.90274
C          1.79193      110.99222      -16.44415
C          2.76310      111.84170      -15.63031
O          2.47654      113.00642      -15.39151
C          1.76367      111.42614      -17.92026
C          3.08573      111.11392      -18.52804
O          3.73023      111.97781      -19.09221
O          3.56645      109.86160      -18.39377
H         -0.31862      111.39012      -16.48185
H          2.12631      109.93292      -16.43941
H          1.49700      112.50079      -18.03294
H          1.00976      110.81375      -18.45987
N          3.95380      111.31605      -15.20539
C          4.91705      112.03673      -14.37485
C          6.27674      112.26824      -15.04238
O          7.08860      112.95236      -14.43378
C          5.12483      111.23738      -13.08068
H          4.17716      110.34768      -15.46498
H          4.51409      113.03809      -14.11168
H          4.15572      111.09108      -12.55858
H          5.54985      110.23493      -13.31446
H          5.82091      111.76130      -12.39196
N          6.63000      111.70940      -16.23922
C          7.97667      111.83910      -16.81521
C          7.98330      112.11701      -18.32771
O          9.06427      112.22112      -18.89099
C          8.81375      110.60026      -16.41835
C          8.14935      109.30540      -16.77660
O          7.87370      109.02016      -18.05434
O          7.77649      108.54486      -15.89781
H          5.97222      111.06083      -16.68945
H          8.50992      112.70385      -16.36141
H          8.93598      110.62472      -15.31230
H          9.82854      110.65181      -16.86720
N          6.83525      112.30984      -19.03927
C          6.78923      112.68908      -20.45001
C          7.24460      111.63715      -21.44991
O          7.23878      111.94905      -22.63284
H          5.94611      112.28560      -18.53772
H          7.39904      113.60810      -20.59022
H          5.74019      112.94275      -20.71617
N          7.66331      110.39290      -21.08373
C          8.19491      109.42487      -22.04143
C          7.17233      108.88534      -23.03708
O          7.59579      108.16697      -23.93282
C          8.90550      108.25738      -21.31257
C          8.01170      107.32752      -20.52536
N          8.56170      106.30330      -19.83644
O          6.80061      107.48208      -20.50621
H          7.68691      110.15960      -20.09061
H          8.98785      109.94939      -22.61986
H          9.66298      108.68927      -20.62303
H          9.44530      107.63971      -22.06276
H          9.58168      106.15744      -19.83286
H          7.96658      105.65520      -19.30493
N          5.83279      109.15373      -22.95602
C          4.88049      108.63459      -23.92798
C          3.84113      107.74708      -23.29343
O          2.66076      107.99352      -23.50122
H          5.46857      109.74392      -22.19568
H          5.38474      108.02650      -24.70702
H          4.38642      109.48502      -24.44749
N          4.20392      106.67070      -22.53390
C          3.23960      105.68898      -22.03744
C          3.15150      105.62886      -20.52003
O          3.99817      106.16250      -19.81760
C          3.62247      104.28578      -22.57914
C          3.50683      104.22470      -24.10200
O          4.94505      103.96243      -22.22168
H          5.20534      106.51397      -22.34754
H          2.21673      105.94987      -22.38717
H          2.92956      103.50937      -22.18094
H          4.94739      103.73896      -21.25496
H          3.79593      103.21268      -24.45772
H          2.45893      104.42205      -24.41113
H          4.17575      104.96925      -24.58348
N          2.09860      104.95905      -19.96282
C          1.92708      104.70041      -18.53660
C          3.01739      103.75341      -18.06554
O          3.19352      102.69446      -18.65242
C          0.49064      104.12179      -18.25395
C         -0.55183      105.26866      -18.40826
C          0.37846      103.48611      -16.85458
C         -2.00329      104.86831      -18.12297
H          1.37934      104.59039      -20.60448
H          2.00234      105.64813      -17.96178
H          0.27433      103.30352      -18.97611
H         -0.50323      105.66904      -19.44250
H         -0.29726      106.09608      -17.70756
H         -0.61706      103.02657      -16.69519
H          1.09375      102.64742      -16.74778
H          0.55577      104.24005      -16.06960
H         -2.32085      104.04231      -18.79108
H         -2.14078      104.56701      -17.06327
H         -2.66516      105.74455      -18.28913
N          3.71628      104.04615      -16.93259
C          4.66853      103.14035      -16.30284
C          3.98097      102.43046      -15.14743
O          2.81188      102.68031      -14.91111
C          5.88320      103.93667      -15.77722
C          6.61119      104.68607      -16.85309
O          5.98985      105.65988      -17.54573
O          7.78698      104.44417      -17.07323
H          3.46601      104.89809      -16.41368
H          5.00912      102.36315      -17.02203
H          6.59858      103.23840      -15.29378
H          5.54646      104.67048      -15.01197
N          4.63425      101.51064      -14.38790
C          4.00888      100.83355      -13.25463
C          3.57088      101.80684      -12.15127
O          2.40721      101.73281      -11.78135
C          4.92756       99.71947      -12.71436
C          4.31346       98.97326      -11.54861
C          3.05729       98.34544      -11.66483
C          5.00189       98.89814      -10.32597
C          2.50156       97.66946      -10.57421
C          4.44675       98.21165       -9.24228
C          3.19645       97.60104       -9.36471
H          5.60800      101.27335      -14.63292
H          3.09811      100.31728      -13.63279
H          5.90900      100.14597      -12.42429
H          5.11262       98.99369      -13.53626
H          2.50038       98.38156      -12.59182
H          5.97147       99.36616      -10.21164
H          1.53167       97.19739      -10.66705
H          4.98679       98.15422       -8.30643
H          2.76683       97.07385       -8.52278
N          4.38899      102.75431      -11.58082
C          3.96257      103.65952      -10.51130
C          2.96102      104.72387      -10.95940
O          2.59064      105.54996      -10.13652
C          5.27931      104.27666      -10.02876
C          6.07640      104.34925      -11.30860
C          5.77376      102.99164      -11.93644
H          3.51203      103.10141       -9.66098
H          5.18223      105.22535       -9.45804
H          5.79547      103.53364       -9.37841
H          5.61694      105.14431      -11.94098
H          7.15800      104.57022      -11.19209
H          5.94959      103.08753      -13.02091
H          6.39917      102.18458      -11.50053
N          2.43897      104.73754      -12.21522
C          1.41703      105.66298      -12.67563
C          0.09521      104.91316      -12.73940
O         -0.87527      105.37284      -12.15448
C          1.81909      106.24370      -14.04647
C          3.19024      106.94353      -14.00061
C          3.63153      107.48079      -15.33519
O          2.90798      107.42413      -16.31685
O          4.86233      108.01062      -15.45293
H          2.73761      104.02917      -12.88786
H          1.29321      106.51495      -11.96992
H          1.03856      106.95892      -14.38803
H          1.88687      105.41829      -14.77882
H          3.95597      106.20653      -13.67968
H          3.16939      107.77833      -13.26811
N          0.00242      103.70835      -13.36987
C         -1.20511      102.91425      -13.37917
H         -2.01343      103.45348      -13.91266
H         -1.01354      101.94852      -13.89715
H         -1.51874      102.68988      -12.33700
H          0.82657      103.30794      -13.82531
Ca         5.70974      109.26963      -18.59103
O          3.25760      108.98464      -20.82280
H          2.34965      108.79419      -20.47845
H          3.20677      109.90664      -21.17959

Ca 1.0



