%chk=holoCaM-CaMKII.loop4.water1.frame296.chk
%nprocshared=20
%mem=10GB
%nosave
#b3lyp/svp scf=(tight,noincore,xqc) Test 
#IOP(5/87=12) Density=Current Pop=(MK,readradii) iop(6/33=2) iop(6/42=6)

holoCaM-CaMKII.loop4.water1.frame296 

   -3  1 
C         37.02424       44.27512       75.93644
C         35.70255       44.90198       76.26141
O         34.68239       44.23469       76.17473
H         37.68714       44.32799       76.82635
H         36.89617       43.20979       75.65019
H         37.49910       44.82174       75.09532
N         35.65467       46.19465       76.68008
C         34.41554       46.86018       77.05881
C         33.51974       47.06394       75.83714
O         34.02569       47.47865       74.80336
C         34.73368       48.18932       77.77438
C         33.48386       48.71431       78.40132
O         33.03208       49.79224       78.06293
O         32.80155       47.93660       79.26508
H         36.54660       46.70582       76.77882
H         33.90063       46.21773       77.80832
H         35.17877       48.92225       77.06484
H         35.45914       48.00744       78.59618
N         32.17854       46.79457       75.88972
C         31.29724       46.82478       74.71801
C         30.32096       47.99823       74.80053
O         30.40285       48.88115       73.95742
C         30.56026       45.45085       74.56732
C         31.58417       44.28443       74.53137
C         29.63867       45.44009       73.33448
C         30.95262       42.89051       74.48925
H         31.77269       46.53305       76.79695
H         31.90842       46.97924       73.80035
H         29.91120       45.29478       75.44800
H         32.19007       44.31657       75.46025
H         32.26696       44.40174       73.66287
H         30.22709       45.55693       72.40153
H         29.05627       44.49736       73.28506
H         28.89018       46.25721       73.39846
H         30.27217       42.74535       75.35341
H         30.39330       42.72550       73.54715
H         31.75416       42.12317       74.54232
N         29.35127       48.06468       75.76025
C         28.37302       49.15936       75.84438
C         28.99956       50.51046       76.20002
O         28.27806       51.49860       76.18809
C         27.23890       48.81831       76.85401
C         27.79806       48.44716       78.19726
O         27.63311       47.32240       78.64192
O         28.66606       49.27760       78.78920
H         29.28132       47.28225       76.42248
H         27.89191       49.27321       74.84767
H         26.65872       47.95544       76.46050
H         26.54071       49.67757       76.95308
N         30.31559       50.64411       76.52761
C         30.92506       51.92194       76.84646
C         30.38139       52.52503       78.11868
O         29.94981       53.66908       78.08445
H         30.93087       49.82099       76.54073
H         30.80719       52.62284       75.99086
H         32.01423       51.77688       76.99680
N         30.43199       51.83092       79.29446
C         30.10798       52.42734       80.58982
C         31.34193       52.50271       81.48942
O         31.27081       53.17395       82.50878
C         28.91207       51.72031       81.27118
C         29.14108       50.29866       81.71538
O         30.22100       49.75325       81.57628
O         28.13447       49.62256       82.29992
H         30.76711       50.85965       79.26611
H         29.79019       53.48063       80.42852
H         28.05223       51.73373       80.56693
H         28.62233       52.30051       82.17377
N         32.51300       51.87057       81.16706
C         33.75844       52.04909       81.89005
C         34.28332       50.77990       82.52707
O         35.46181       50.76653       82.85394
H         32.57121       51.26380       80.34049
H         33.69446       52.83442       82.67214
H         34.50412       52.39943       81.14223
N         33.47924       49.71250       82.81885
C         33.97089       48.51364       83.49686
C         33.60761       47.25044       82.74050
O         32.43190       46.99227       82.51787
C         33.41717       48.40739       84.92844
C         33.94387       49.53094       85.83303
C         33.62867       49.24991       87.28040
N         32.35124       49.15452       87.71394
O         34.54666       49.09722       88.07312
H         32.47364       49.77113       82.61208
H         35.07728       48.54875       83.59797
H         33.78402       47.44380       85.34936
H         32.30478       48.38761       84.92723
H         33.51972       50.51082       85.52615
H         35.05089       49.58296       85.72898
H         31.56145       49.28112       87.06575
H         32.15343       48.95061       88.70510
N         34.59124       46.38376       82.36570
C         34.33628       45.09647       81.72596
C         33.60525       44.17155       82.69991
O         34.15208       43.83047       83.73947
C         35.67507       44.46036       81.24623
C         35.47001       43.05740       80.65251
C         36.34647       45.35020       80.18383
H         35.56736       46.64949       82.56402
H         33.71050       45.26887       80.82162
H         36.36261       44.36516       82.11646
H         36.44540       42.63771       80.32600
H         35.05482       42.36503       81.41230
H         34.78343       43.09404       79.78069
H         37.31373       44.90959       79.86340
H         35.68872       45.44101       79.29688
H         36.55585       46.36999       80.56561
N         32.34373       43.74658       82.41379
C         31.53919       42.87584       83.26990
C         32.00629       41.42254       83.15890
O         32.87930       41.13717       82.35249
C         30.06048       43.02644       82.81563
C         29.02718       42.35158       83.67654
N         28.87814       42.69473       84.97601
O         28.29341       41.50652       83.18715
H         31.91154       44.10797       81.55844
H         31.62129       43.23894       84.31702
H         29.96900       42.65686       81.77391
H         29.80799       44.10805       82.81341
H         29.47336       43.41928       85.40180
H         28.15768       42.23944       85.55548
N         31.44295       40.43984       83.92127
C         31.73400       39.01562       83.75131
C         31.31002       38.55992       82.36346
O         32.09981       37.94472       81.66334
C         30.95667       38.17449       84.79312
C         31.17978       36.69428       84.56585
C         32.45138       36.12425       84.74611
C         30.11893       35.88078       84.13060
C         32.65829       34.76502       84.48967
C         30.33017       34.52484       83.86743
C         31.60228       33.96245       84.04446
O         31.82202       32.65769       83.78508
H         30.75169       40.70952       84.63496
H         32.82174       38.83170       83.89825
H         29.87308       38.40745       84.69653
H         31.26213       38.44723       85.82618
H         33.28293       36.73226       85.07931
H         29.13227       36.29917       83.97316
H         33.64316       34.33704       84.62858
H         29.50620       33.91509       83.51856
H         31.12203       32.07268       83.46140
N         30.04791       38.82160       81.92560
C         29.52626       38.42122       80.62353
C         30.39701       38.96245       79.50774
O         30.80270       38.18958       78.65013
C         28.07229       38.93299       80.44372
C         27.05946       38.31526       81.43507
C         26.80624       36.84034       81.24009
O         25.94225       36.20986       82.05760
O         27.34443       36.21090       80.34280
H         29.43630       39.35786       82.55403
H         29.52590       37.31396       80.54859
H         27.71621       38.72060       79.41142
H         28.06790       40.03780       80.57746
H         26.08477       38.83241       81.30481
H         27.38963       38.48687       82.47984
N         30.74558       40.27885       79.46933
C         31.57252       40.85122       78.40719
C         32.92366       40.15254       78.31649
O         33.44347       40.02095       77.21750
C         31.75531       42.37927       78.57329
C         30.39820       43.11133       78.59948
C         30.53382       44.60356       78.65022
O         29.94644       45.28703       77.83477
O         31.23836       45.20775       79.61983
H         30.41518       40.88017       80.23571
H         31.04299       40.68970       77.44099
H         32.35395       42.75696       77.71431
H         32.31294       42.59440       79.51150
H         29.81666       42.81098       79.48796
H         29.80746       42.83470       77.70030
N         33.51338       39.62221       79.42522
C         34.73782       38.84775       79.40452
H         35.49250       39.32845       80.06029
H         34.52730       37.82816       79.79563
H         35.15920       38.74471       78.38339
H         33.06134       39.74696       80.33639
Ca        30.59476       48.26357       79.28939
O         28.43672       46.31350       81.61907
H         28.00853       45.44635       81.83092
H         27.67758       46.92974       81.46439

Ca 1.0



