%chk=holoCaM-CaMKII.loop3.water3.frame444.chk
%nprocshared=20
%mem=10GB
%nosave
#b3lyp/svp scf=(tight,noincore,xqc) Test 
#IOP(5/87=12) Density=Current Pop=(MK,readradii) iop(6/33=2) iop(6/42=6)

holoCaM-CaMKII.loop3.water3.frame444 

   0  1 
C         68.67713       77.92108       21.44144
C         68.80914       78.11504       22.92026
O         69.91893       78.28538       23.40544
H         68.05545       78.74132       21.02109
H         69.67347       77.95007       20.95106
H         68.19107       76.94752       21.23036
N         67.69530       78.14885       23.70140
C         67.75763       78.48217       25.11445
C         68.44690       77.40037       25.93802
O         67.90463       76.31644       26.10094
C         66.34620       78.73589       25.66391
C         66.35783       79.35564       27.02651
O         67.50541       79.73814       27.61985
O         65.29807       79.66980       27.53069
H         66.77472       78.03411       23.24829
H         68.31250       79.44635       25.18251
H         65.75857       77.79249       25.67445
H         65.82635       79.45988       24.99699
N         69.65267       77.65782       26.50549
C         70.36003       76.76168       27.40879
C         69.63495       76.59894       28.73964
O         69.43043       75.46297       29.14368
C         71.79953       77.28187       27.64689
C         72.66223       77.05683       26.38954
C         74.11858       77.49678       26.58475
C         74.98216       77.01772       25.40547
N         76.38117       77.40687       25.57588
H         70.10561       78.54272       26.26316
H         70.45779       75.75345       26.94693
H         72.26598       76.69225       28.46648
H         71.78900       78.35222       27.95429
H         72.23440       77.58129       25.50788
H         72.65603       75.96410       26.18074
H         74.52173       77.04060       27.51481
H         74.16526       78.60412       26.67899
H         74.59493       77.43708       24.45054
H         74.92527       75.90664       25.34668
H         76.46671       78.44870       25.56768
H         76.75627       77.02557       26.47492
H         76.94246       77.01295       24.78593
N         69.23643       77.67144       29.48695
C         68.69592       77.53998       30.84659
C         67.17007       77.61793       30.93579
O         66.65653       77.57845       32.04604
C         69.40586       78.52701       31.80633
C         69.15286       79.98727       31.54531
O         69.72007       80.90712       32.34821
O         68.44512       80.35346       30.62388
H         69.36137       78.61376       29.09017
H         68.94212       76.53092       31.24411
H         70.50198       78.35068       31.75399
H         69.07772       78.31277       32.84654
N         66.37374       77.62116       29.82818
C         64.91775       77.51973       29.89188
C         64.18266       78.74157       30.42425
O         62.96745       78.66103       30.53756
H         66.81205       77.56802       28.90072
H         64.65507       76.63669       30.51601
H         64.52660       77.32873       28.86989
N         64.81793       79.89661       30.77326
C         64.11725       81.04749       31.35462
C         63.15205       81.77073       30.40536
O         62.50674       82.70610       30.85922
C         65.13133       82.05616       31.93633
C         65.90607       82.79287       30.87409
N         65.87082       84.13948       30.80601
O         66.57522       82.17426       30.06663
H         65.84139       79.92796       30.69592
H         63.53122       80.66753       32.22069
H         65.83778       81.51751       32.60480
H         64.58351       82.79288       32.56341
H         65.31837       84.69429       31.47518
H         66.41304       84.62256       30.07905
N         63.00818       81.43406       29.09103
C         62.05466       82.08613       28.20621
C         62.65121       83.16895       27.32324
O         61.89070       83.72490       26.54361
H         63.53833       80.64967       28.70451
H         61.20772       82.50841       28.78684
H         61.61297       81.30856       27.54303
N         63.97817       83.50517       27.33332
C         64.54416       84.44236       26.35226
C         66.04657       84.15469       26.12466
O         66.14941       82.77858       25.97232
C         64.18947       85.91048       26.69732
C         64.73926       86.42286       28.01298
C         66.11679       86.64637       28.19315
C         63.85864       86.72768       29.06691
C         66.59927       87.16310       29.40302
C         64.34310       87.23435       30.27618
C         65.71614       87.45485       30.44856
O         66.19577       87.94308       31.61075
H         64.61649       82.99264       27.96016
H         64.07944       84.20444       25.36789
H         63.08172       85.97825       26.71743
H         64.51871       86.59579       25.88951
H         66.81900       86.43783       27.39819
H         62.79281       86.57324       28.95558
H         67.66106       87.33342       29.53044
H         63.64926       87.45784       31.07712
H         65.61781       88.15207       32.35899
N         66.54425       84.78990       24.88640
C         67.93339       84.38205       24.52593
C         68.92227       85.55698       24.50285
O         68.54037       86.70081       24.67702
C         67.94455       83.59610       23.17261
C         67.43780       84.48021       22.00572
C         67.14531       82.28307       23.28650
C         67.50598       83.79451       20.63844
H         66.39723       85.82100       24.90295
H         68.33575       83.69891       25.30610
H         68.99195       83.29603       22.95090
H         68.07299       85.38967       21.94725
H         66.38957       84.79799       22.19342
H         67.24865       81.66391       22.37288
H         67.54206       81.66638       24.12080
H         66.06622       82.48483       23.45204
H         68.54408       83.46475       20.42064
H         66.82241       82.92263       20.58773
H         67.18674       84.51001       19.85210
N         70.25283       85.29262       24.34179
C         71.31071       86.29817       24.39426
C         72.23961       86.14923       23.19306
O         72.00815       85.30632       22.35018
C         72.09137       86.10740       25.70743
O         72.70314       84.84714       25.74283
H         70.54632       84.31882       24.23669
H         70.88478       87.32313       24.40506
H         71.37615       86.20619       26.55505
H         72.86630       86.89642       25.81467
H         73.07301       84.74407       26.65779
N         73.34670       86.94221       23.08309
C         74.33756       86.78714       22.01918
C         75.01113       85.42469       22.08238
O         75.05000       84.73544       21.06997
C         75.40804       87.87864       22.14478
H         73.49887       87.67018       23.79218
H         73.84867       86.92307       21.02924
H         76.15172       87.77863       21.32489
H         74.93514       88.88047       22.06587
H         75.93679       87.81008       23.11931
N         75.56305       84.97338       23.24484
C         76.28232       83.70676       23.38153
C         75.45810       82.52857       22.89821
O         75.92985       81.77452       22.06032
C         76.67966       83.48403       24.84774
H         75.46263       85.56961       24.08327
H         77.21832       83.75386       22.78099
H         77.31992       84.31966       25.20182
H         75.77944       83.43029       25.49834
H         77.25083       82.53684       24.95351
N         74.20006       82.33443       23.37506
C         73.32278       81.24139       22.95525
C         73.15300       81.25398       21.44503
O         73.47969       80.26192       20.80663
C         71.96287       81.38346       23.67716
C         72.11301       81.12481       25.19248
C         70.92992       81.61390       25.97490
O         70.67785       82.80193       26.01208
O         70.19155       80.77583       26.71286
H         73.84380       83.02832       24.04826
H         73.77382       80.26330       23.23968
H         71.21114       80.67180       23.27200
H         71.59115       82.41141       23.48588
H         72.99253       81.65639       25.60833
H         72.27121       80.03674       25.35121
N         72.68781       82.35510       20.79911
C         72.57503       82.41857       19.35824
H         72.19576       83.41688       19.05214
H         73.57331       82.26550       18.89362
H         71.87262       81.63982       18.99446
H         72.42783       83.18375       21.34417
Ca        67.59155       81.95000       27.48346
O         69.21231       83.58622       30.66459
H         68.72123       83.34314       31.48867
H         69.56668       84.49190       30.84746
O         71.03330       81.45244       29.38270
H         71.67685       82.00500       28.87245
H         71.51773       80.60866       29.56631
O         69.20102       85.00515       27.91072
H         69.84197       84.25483       27.98219
H         69.56958       85.69949       28.51240

Ca 1.0



