%chk=holoCaM.loop2.water1.frame3.chk
%nprocshared=20
%mem=10GB
%nosave
#b3lyp/svp scf=(tight,noincore,xqc) Test 
#IOP(5/87=12) Density=Current Pop=(MK,readradii) iop(6/33=2) iop(6/42=6)

holoCaM.loop2.water1.frame3 

   -2  1 
C         85.12050       38.00611       45.84840
C         85.87195       36.75914       45.50222
O         85.26738       35.69987       45.41392
H         84.04194       37.78601       45.99573
H         85.53230       38.44013       46.78317
H         85.22806       38.74093       45.02289
N         87.21296       36.81802       45.27866
C         87.99774       35.65159       44.90359
C         87.94766       34.59435       46.00043
O         88.49556       34.79941       47.07440
C         89.43946       36.08339       44.57697
C         90.34037       34.93182       44.26088
O         90.08334       34.15279       43.35771
O         91.45113       34.76400       44.99175
H         87.67864       37.73676       45.35066
H         87.55943       35.23588       43.96997
H         89.86981       36.63111       45.44401
H         89.41875       36.78033       43.71143
N         87.27211       33.43233       45.77491
C         87.12837       32.35550       46.74488
C         88.25468       31.33646       46.64347
O         88.23021       30.38053       47.40673
C         85.78834       31.63964       46.51172
H         86.77695       33.33777       44.88345
H         87.09623       32.78057       47.77234
H         85.63127       30.84350       47.27053
H         84.94847       32.36215       46.58663
H         85.76487       31.17025       45.50516
N         89.27228       31.46157       45.74018
C         90.34394       30.47953       45.60063
C         91.68272       31.04677       46.03622
O         92.66759       30.32229       45.97116
C         90.45993       30.04814       44.12187
C         89.18650       29.47173       43.57914
O         88.64700       29.98633       42.61301
O         88.64849       28.37034       44.13436
H         89.30721       32.28358       45.12138
H         90.14622       29.58501       46.23034
H         91.25957       29.28359       44.01526
H         90.74687       30.93140       43.50692
N         91.81877       32.33824       46.45419
C         93.10541       32.93783       46.75578
C         94.02985       33.04807       45.54936
O         95.14008       33.52245       45.74577
H         90.98958       32.93626       46.56722
H         93.60288       32.34475       47.55365
H         92.94354       33.96552       47.14837
N         93.68894       32.61921       44.29026
C         94.65845       32.62028       43.19896
C         94.98541       34.02508       42.69549
O         95.98725       34.18068       42.01235
C         94.22337       31.70565       42.03504
C         93.15984       32.32229       41.16511
N         93.44297       32.60874       39.87329
O         92.05743       32.58425       41.62257
H         92.76639       32.20521       44.11518
H         95.57934       32.15235       43.61433
H         93.88415       30.71917       42.42189
H         95.12056       31.51803       41.40751
H         94.36678       32.39864       39.47010
H         92.75219       33.05967       39.26924
N         94.15987       35.08137       42.95877
C         94.43988       36.45597       42.58080
C         93.40358       37.07652       41.65888
O         93.50142       38.27840       41.45301
H         93.29401       34.92217       43.48255
H         95.43463       36.55888       42.09611
H         94.46460       37.04878       43.51992
N         92.43636       36.35193       41.01426
C         91.50337       36.95786       40.05286
C         90.05432       36.57085       40.35283
O         89.81583       35.82569       41.28892
C         91.90385       36.55246       38.61226
C         93.35086       36.94844       38.29069
O         91.75345       35.17331       38.44610
H         92.41218       35.32835       41.13438
H         91.56288       38.06732       40.10028
H         91.23581       37.08556       37.89898
H         91.76153       34.99890       37.46839
H         94.06382       36.40985       38.95098
H         93.58963       36.68015       37.23998
H         93.49003       38.04236       38.41719
N         89.03046       37.03265       39.57466
C         87.62241       36.69143       39.77906
C         87.13203       35.86496       38.59273
O         87.22709       36.31354       37.45863
C         86.77428       37.98955       39.98776
C         87.19985       38.68651       41.30965
C         85.26242       37.67390       40.00170
C         86.46856       40.00362       41.59210
H         89.25213       37.65215       38.78091
H         87.49148       36.07248       40.69480
H         86.95924       38.67920       39.13388
H         88.28547       38.91624       41.26448
H         87.02673       38.00047       42.16884
H         85.00619       36.98062       40.83026
H         84.65358       38.59490       40.09416
H         84.95328       37.22482       39.03843
H         86.62438       40.72095       40.75931
H         85.38169       39.84559       41.74622
H         86.86421       40.45125       42.52810
N         86.53291       34.65747       38.81376
C         85.89617       33.84237       37.78033
C         84.42100       34.18412       37.69315
O         83.93871       34.99756       38.45945
C         86.05982       32.34145       38.12686
C         87.43153       31.82139       37.81296
O         88.32182       31.56402       38.78555
O         87.75351       31.64041       36.64994
H         86.38120       34.37485       39.79146
H         86.31961       34.06588       36.77641
H         85.36607       31.70122       37.54560
H         85.80069       32.18856       39.19888
N         83.65021       33.61771       36.72610
C         82.23280       33.91063       36.53208
C         81.39117       33.51920       37.75334
O         80.72389       34.40854       38.26315
C         81.76330       33.27714       35.20093
C         80.28003       33.36647       34.94432
C         79.62038       34.60510       34.86815
C         79.54402       32.18360       34.75285
C         78.24647       34.65300       34.60307
C         78.17542       32.23662       34.48590
C         77.52609       33.47009       34.41006
H         84.11146       32.96948       36.06903
H         82.11485       35.01018       36.39229
H         82.07654       32.22174       35.14580
H         82.30161       33.78470       34.37068
H         80.16541       35.52986       35.00778
H         80.03080       31.21713       34.80240
H         77.73931       35.60694       34.54197
H         77.62116       31.31943       34.33391
H         76.46535       33.50739       34.19935
N         81.35720       32.26216       38.30730
C         80.58300       31.91200       39.49878
C         80.74700       32.89552       40.64644
O         79.75888       33.34737       41.20651
C         81.15642       30.54326       39.90396
C         81.47814       29.93908       38.56280
C         82.11409       31.11847       37.83657
H         79.51121       31.81697       39.21404
H         82.13497       30.66672       40.42253
H         80.49255       29.93747       40.55628
H         82.10399       29.02153       38.58277
H         80.50865       29.70095       38.06725
H         83.17704       31.25873       38.11911
H         82.01217       30.91283       36.76063
N         81.99426       33.26934       41.03145
C         82.29803       34.17535       42.13826
C         81.67460       35.53887       41.91088
O         80.94386       36.00386       42.77471
C         83.83411       34.24852       42.30564
C         84.33593       32.87228       42.79681
C         85.80191       32.64747       42.67600
O         86.62597       33.56139       42.14788
O         86.24498       31.54243       42.94264
H         82.78028       32.88172       40.48606
H         81.88393       33.76765       43.08842
H         84.13435       35.02020       43.04616
H         84.28344       34.51796       41.32302
H         83.89911       32.06414       42.17616
H         84.00905       32.70874       43.84513
N         81.88367       36.22310       40.75742
C         81.27550       37.50726       40.49201
H         80.16902       37.42278       40.55101
H         81.63451       38.25565       41.22855
H         81.54801       37.84882       39.47033
H         82.46834       35.80668       40.03047
Ca        88.01345       32.44415       40.81533
O         90.49998       32.82703       38.50114
H         90.70369       32.67094       37.54579
H         90.75703       31.98332       38.95271

Ca 1.0



