%chk=holoCaM.loop3.water2.frame193.chk
%nprocshared=20
%mem=10GB
%nosave
#b3lyp/svp scf=(tight,noincore,xqc) Test 
#IOP(5/87=12) Density=Current Pop=(MK,readradii) iop(6/33=2) iop(6/42=6)

holoCaM.loop3.water2.frame193 

   0  1 
C         32.56440       57.13915       77.43654
C         33.71267       58.04591       77.75788
O         34.47754       58.36785       76.85916
H         31.91165       57.62230       76.67972
H         32.95483       56.18384       77.02848
H         31.95817       56.91864       78.34003
N         33.89509       58.51009       79.02539
C         34.99379       59.39410       79.37658
C         36.22097       58.54955       79.66380
O         36.19942       57.75524       80.59408
C         34.56731       60.29783       80.54572
C         35.53298       61.39776       80.86140
O         36.58564       61.52203       80.25815
O         35.20072       62.28963       81.80582
H         33.22386       58.23662       79.76017
H         35.18497       60.07395       78.51794
H         34.38462       59.69050       81.45823
H         33.61346       60.79399       80.26154
N         37.29863       58.61304       78.83388
C         38.43007       57.69595       78.91878
C         39.21323       57.85824       80.21087
O         39.33839       56.88340       80.93905
C         39.33530       57.86672       77.67607
C         40.46730       56.82787       77.54706
C         40.01175       55.35422       77.54445
C         38.99187       55.02226       76.44096
N         38.62784       53.60595       76.47997
H         37.25859       59.27348       78.04361
H         38.01191       56.66771       78.87286
H         39.79205       58.87654       77.67549
H         38.70029       57.79784       76.76638
H         41.18749       56.96642       78.38158
H         41.00853       57.03554       76.59777
H         39.57929       55.09533       78.53324
H         40.91392       54.72027       77.40325
H         39.42270       55.26594       75.44489
H         38.06838       55.62402       76.58150
H         39.47073       53.01206       76.30604
H         38.21377       53.36701       77.41069
H         37.91726       53.41315       75.73744
N         39.76327       59.05671       80.56506
C         40.54130       59.24007       81.79177
C         39.68848       59.71049       82.95897
O         40.22038       59.81616       84.05567
C         41.75070       60.17699       81.54872
C         41.39642       61.62384       81.29856
O         42.27862       62.41983       81.02100
O         40.11941       62.04479       81.34163
H         39.59104       59.86563       79.95696
H         40.96556       58.25568       82.08900
H         42.31876       59.78760       80.67524
H         42.42249       60.15046       82.43317
N         38.36158       59.99665       82.81463
C         37.52073       60.39508       83.92687
C         37.96525       61.70260       84.53590
O         38.30614       61.71144       85.71034
H         37.90935       59.90052       81.89560
H         37.53593       59.58797       84.69227
H         36.47166       60.50843       83.57939
N         37.95152       62.85601       83.80512
C         38.31246       64.16030       84.36615
C         37.12294       65.11503       84.42681
O         37.27918       66.21249       84.94308
C         39.48326       64.78919       83.57779
C         39.10588       65.27470       82.19155
N         39.23343       66.58322       81.86553
O         38.68826       64.48886       81.35629
H         37.64528       62.80097       82.82293
H         38.66044       64.02513       85.41279
H         40.31336       64.05401       83.50436
H         39.86032       65.65500       84.16383
H         39.58679       67.26914       82.54846
H         38.97972       66.91539       80.92345
N         35.91330       64.77355       83.90218
C         34.74496       65.62882       83.89604
C         34.35727       66.02185       82.48846
O         33.26050       66.54056       82.32835
H         35.79023       63.86102       83.45854
H         34.88732       66.55769       84.48856
H         33.91363       65.05465       84.35992
N         35.21918       65.88711       81.43087
C         34.88117       66.31719       80.08022
C         35.13668       65.22705       79.05107
O         35.91716       64.31451       79.28643
C         35.69116       67.56908       79.67141
C         35.38481       68.78613       80.51499
C         35.80921       68.87546       81.85323
C         34.67595       69.86192       79.95210
C         35.51873       70.01395       82.61270
C         34.38227       70.99495       80.71399
C         34.80235       71.07482       82.04833
O         34.52595       72.16396       82.79353
H         36.17187       65.52962       81.59053
H         33.80245       66.58414       80.02356
H         35.42919       67.79927       78.61498
H         36.78364       67.36864       79.69947
H         36.37358       68.07295       82.30980
H         34.34008       69.82215       78.92333
H         35.85244       70.07242       83.64118
H         33.82811       71.80944       80.26469
H         34.03116       72.91686       82.43912
N         34.51213       65.31592       77.84508
C         34.73593       64.44497       76.69729
C         35.14157       65.32947       75.52882
O         34.45168       66.30027       75.24400
C         33.45020       63.61404       76.39715
C         33.27562       62.55066       77.51658
C         33.53318       62.92958       75.01346
C         31.98860       61.72931       77.42640
H         33.82418       66.07631       77.72020
H         35.55487       63.71555       76.88627
H         32.57387       64.29934       76.38043
H         33.27396       63.04927       78.50857
H         34.13958       61.85261       77.48563
H         33.62777       63.68557       74.20637
H         34.40209       62.24008       74.96124
H         32.60701       62.36738       74.78348
H         31.93595       61.14035       76.48934
H         31.95946       61.00502       78.26826
H         31.10497       62.39633       77.49970
N         36.22665       65.00977       74.77032
C         36.66989       65.78246       73.61936
C         36.34142       65.03880       72.34452
O         35.86086       63.91771       72.41403
C         38.18430       66.05103       73.72088
O         38.91657       64.85309       73.64639
H         36.71792       64.13310       74.96812
H         36.13299       66.75453       73.58369
H         38.42022       66.60084       74.66118
H         38.51628       66.70141       72.88557
H         39.09297       64.55198       74.57456
N         36.53724       65.62276       71.13067
C         36.24160       64.93611       69.87829
C         37.19185       63.77248       69.64577
O         36.79339       62.80498       69.01316
C         36.30896       65.90615       68.69956
H         36.88103       66.59551       71.10221
H         35.19414       64.55842       69.92099
H         36.03093       65.38405       67.75908
H         35.58672       66.73567       68.86179
H         37.32954       66.33068       68.59700
N         38.46920       63.80145       70.12785
C         39.40387       62.68686       69.99481
C         38.85298       61.46625       70.70626
O         38.72877       60.41528       70.09375
C         40.76753       63.06907       70.58446
H         38.78605       64.64580       70.62860
H         39.56343       62.45854       68.91742
H         40.68463       63.32433       71.66250
H         41.48465       62.22894       70.46716
H         41.17347       63.95119       70.04397
N         38.44014       61.57070       71.99966
C         37.78943       60.49781       72.75121
C         36.58019       59.97205       71.99747
O         36.41236       58.76207       71.93675
C         37.40762       61.00804       74.16251
C         38.68888       61.21931       74.98644
C         38.46884       61.83384       76.33123
O         38.84965       61.16246       77.41861
O         38.08071       62.98072       76.44723
H         38.53839       62.49285       72.45040
H         38.48937       59.64115       72.88071
H         36.77910       60.25985       74.69443
H         36.82261       61.94746       74.06972
H         39.40768       61.87343       74.45343
H         39.17144       60.22584       75.12533
N         35.75867       60.81399       71.31246
C         34.66347       60.36602       70.47788
H         33.72344       60.85134       70.80906
H         34.86779       60.66008       69.42562
H         34.52979       59.26478       70.50771
H         35.94655       61.82077       71.33135
Ca        39.19567       62.24486       79.33114
O         41.16923       64.52379       79.01978
H         41.82456       65.22161       78.76882
H         41.41338       63.74213       78.46303
O         38.46213       65.80472       78.03776
H         37.79863       66.44167       77.67181
H         39.33297       66.25833       77.91236

Ca 1.0



