%chk=holoCaM-CaMKII.loop1.water2.frame348.chk
%nprocshared=20
%mem=10GB
%nosave
#b3lyp/svp scf=(tight,noincore,xqc) Test 
#IOP(5/87=12) Density=Current Pop=(MK,readradii) iop(6/33=2) iop(6/42=6)

holoCaM-CaMKII.loop1.water2.frame348 

   0  1 
C         28.84890       78.65891       45.21969
C         29.50624       79.73508       46.02447
O         28.81759       80.62512       46.50252
H         27.75381       78.83476       45.15267
H         29.27714       78.64212       44.19663
H         29.02303       77.67821       45.71052
N         30.85181       79.70311       46.23558
C         31.53207       80.68698       47.06435
C         31.41162       82.07116       46.44899
O         32.01992       82.33105       45.41937
C         33.01125       80.29200       47.24816
C         33.76477       81.18856       48.18494
O         33.16747       82.22788       48.79592
O         34.93858       80.95891       48.40665
H         31.39335       78.92470       45.82766
H         31.04616       80.66573       48.06634
H         33.52218       80.29490       46.25958
H         33.05915       79.26069       47.65994
N         30.59449       82.99789       47.01876
C         30.40744       84.33070       46.47167
C         31.58906       85.21566       46.82380
O         32.24587       85.71028       45.91813
C         29.07211       84.94731       46.96011
C         27.81767       84.11869       46.58681
C         27.70384       83.84513       45.07705
C         26.39395       83.13731       44.71196
N         26.35462       82.83987       43.27896
H         30.02254       82.71090       47.82231
H         30.34067       84.26928       45.36510
H         28.96767       85.95693       46.50611
H         29.08234       85.07107       48.06514
H         26.92532       84.68953       46.92568
H         27.81965       83.14862       47.12893
H         28.54019       83.18817       44.75887
H         27.75916       84.80604       44.52121
H         25.53424       83.79157       44.97804
H         26.30491       82.18643       45.28311
H         27.12890       82.18152       43.02957
H         25.44141       82.38932       43.04318
H         26.45233       83.72026       42.72239
N         31.90495       85.48004       48.12574
C         32.98119       86.39318       48.51617
C         34.39805       85.89795       48.19255
O         35.33071       86.64295       48.46172
C         32.84615       86.80056       50.00546
C         32.98070       85.69412       51.01540
O         32.88528       85.99019       52.32540
O         33.16357       84.53856       50.67358
H         31.30433       85.07619       48.86053
H         32.83336       87.34141       47.95227
H         31.84846       87.27039       50.14971
H         33.61263       87.57227       50.23522
N         34.65434       84.70350       47.57898
C         35.99539       84.30809       47.16087
C         36.95172       83.93475       48.28302
O         38.11146       83.69110       47.97997
H         33.87820       84.08913       47.30569
H         36.43075       85.13142       46.55473
H         35.92040       83.41498       46.50219
N         36.55191       83.82070       49.58197
C         37.43362       83.40570       50.68181
C         37.95898       81.95876       50.59170
O         38.63986       81.54441       51.52042
C         36.73893       83.65256       52.04778
C         35.42504       82.94778       52.26545
O         34.87340       82.17638       51.31128
O         34.81178       83.14443       53.30158
H         35.57829       84.06051       49.80619
H         38.32453       84.07255       50.68832
H         36.53783       84.74333       52.13180
H         37.43485       83.38079       52.87112
N         37.74680       81.14755       49.51235
C         38.29107       79.80159       49.39547
C         37.50944       78.74879       50.15637
O         37.88228       77.58748       50.05763
H         37.25332       81.50064       48.69028
H         39.36507       79.79831       49.68764
H         38.24266       79.49982       48.32704
N         36.42484       79.05524       50.92480
C         35.63755       78.06127       51.65300
C         34.15133       78.20703       51.34291
O         33.77697       79.11825       50.61776
C         35.90842       78.20285       53.16942
C         37.35870       77.83715       53.52076
O         35.59612       79.49592       53.62597
H         36.15003       80.03956       51.02706
H         35.93033       77.03150       51.34909
H         35.26767       77.48337       53.72131
H         36.30885       80.11771       53.32309
H         38.07843       78.51340       53.01247
H         37.51100       77.91735       54.61713
H         37.57208       76.79193       53.20986
N         33.24614       77.30779       51.83413
C         31.80638       77.38134       51.57698
C         31.05174       77.27898       52.90305
O         31.35223       76.37588       53.67366
C         31.33485       76.23006       50.63087
C         32.31411       76.00481       49.44945
C         29.91664       76.55872       50.10590
C         31.91079       74.83794       48.54177
H         33.59912       76.50429       52.37721
H         31.56248       78.33499       51.05680
H         31.30817       75.27953       51.20916
H         33.31110       75.74339       49.86470
H         32.41860       76.92847       48.84074
H         29.20918       76.72490       50.93791
H         29.94190       77.48060       49.48166
H         29.49615       75.73572       49.49667
H         32.70413       74.66417       47.78555
H         31.78298       73.90929       49.13907
H         30.97184       75.05470       47.99392
N         29.99640       78.09229       53.19233
C         29.17235       77.94375       54.39595
C         27.86060       77.25897       54.05210
O         27.61934       76.96372       52.89351
C         28.89674       79.32651       55.04692
C         30.17642       79.99239       55.53855
O         28.25597       80.16558       54.12126
H         29.69945       78.77407       52.48344
H         29.67474       77.28552       55.13842
H         28.23720       79.18209       55.93219
H         27.84946       80.91325       54.63241
H         30.68023       79.34754       56.28874
H         30.85214       80.17785       54.68463
H         29.93101       80.96499       56.01734
N         26.95845       76.96798       55.03057
C         25.63756       76.39820       54.76741
C         24.84580       77.33623       53.87039
O         24.27869       76.89248       52.88259
C         24.85762       76.14942       56.08693
C         25.54006       75.09312       56.96608
O         24.71762       77.34652       56.80947
H         27.21117       77.19634       56.00303
H         25.73957       75.41228       54.25877
H         23.85024       75.75871       55.80660
H         23.95526       77.22139       57.43302
H         25.63417       74.13499       56.41266
H         26.54876       75.42252       57.28945
H         24.92816       74.91177       57.87521
N         24.81103       78.66758       54.15279
C         24.09232       79.66607       53.36911
C         24.52337       79.64767       51.90990
O         23.67353       79.51521       51.04045
C         24.33990       81.05384       54.00451
C         23.53471       82.18002       53.34918
C         23.76649       83.50185       54.09359
C         22.91073       84.62682       53.50144
N         23.10969       85.87614       54.23548
H         25.34570       78.99199       54.97359
H         23.00240       79.44886       53.42848
H         25.42400       81.30152       53.96713
H         24.03774       80.99621       55.07431
H         22.45497       81.92011       53.39606
H         23.83401       82.29463       52.28458
H         24.84238       83.78014       54.03568
H         23.49119       83.37145       55.16366
H         21.83721       84.33909       53.55879
H         23.17943       84.77831       52.43258
H         22.84985       85.74841       55.24087
H         24.10780       86.18044       54.16532
H         22.49836       86.61649       53.82173
N         25.83621       79.77035       51.57592
C         26.33111       79.79528       50.19942
C         25.95267       78.53024       49.44427
O         25.60540       78.62568       48.27510
C         27.86299       80.01625       50.16985
C         28.23219       81.38943       50.76910
C         29.70822       81.65955       50.77777
O         30.14719       82.64290       50.20672
O         30.55399       80.88176       51.47660
H         26.51191       79.84106       52.34740
H         25.87348       80.65659       49.66240
H         28.21887       79.98956       49.11650
H         28.36321       79.19633       50.72237
H         27.88565       81.47078       51.81662
H         27.72175       82.18224       50.17829
N         25.94457       77.31681       50.05840
C         25.54312       76.10327       49.38141
H         24.50395       76.20578       49.00106
H         26.23193       75.89279       48.53717
H         25.57283       75.24787       50.09057
H         26.19930       77.25209       51.04805
Ca        32.70786       81.55429       51.49063
O         31.05762       83.23212       53.38765
H         31.16173       84.21551       53.35866
H         31.11885       83.00261       54.34839
O         33.18738       80.94694       54.28677
H         33.63034       80.72085       55.14177
H         33.11316       80.08440       53.80484

Ca 1.0



