%chk=holoCaM.loop1.water2.frame491.chk
%nprocshared=20
%mem=10GB
%nosave
#b3lyp/svp scf=(tight,noincore,xqc) Test 
#IOP(5/87=12) Density=Current Pop=(MK,readradii) iop(6/33=2) iop(6/42=6)

holoCaM.loop1.water2.frame491 

   0  1 
C        -10.33624       83.88014       39.60372
C        -11.54434       84.18193       40.44073
O        -12.52215       84.67742       39.90421
H         -9.51215       83.45553       40.21551
H        -10.60310       83.15110       38.81135
H         -9.97278       84.81794       39.13297
N        -11.54914       83.90215       41.77248
C        -12.67293       84.20773       42.65501
C        -12.89705       85.72179       42.70199
O        -12.09544       86.44265       43.27902
C        -12.40535       83.54264       44.02899
C        -13.18979       84.04014       45.20602
O        -12.56482       84.32067       46.21462
O        -14.45864       84.47403       45.12311
H        -10.71051       83.44797       42.16748
H        -13.58884       83.73086       42.24403
H        -11.33872       83.71574       44.30060
H        -12.51624       82.44232       43.92837
N        -13.95860       86.26137       42.02703
C        -14.22940       87.69532       41.89708
C        -14.95276       88.28767       43.11618
O        -15.23564       89.47751       43.08865
C        -15.10798       87.95263       40.63406
C        -14.40361       87.57671       39.30980
C        -15.21810       87.95127       38.05060
C        -16.48863       87.10615       37.84663
N        -17.23101       87.53385       36.66228
H        -14.54377       85.61574       41.48016
H        -13.27077       88.23978       41.74438
H        -15.33775       89.03912       40.57586
H        -16.06613       87.40035       40.73585
H        -14.15455       86.49905       39.27858
H        -13.45074       88.14776       39.26500
H        -14.56984       87.79758       37.15957
H        -15.48232       89.02908       38.10059
H        -17.15332       87.17687       38.73294
H        -16.19784       86.05289       37.69249
H        -17.54209       88.52554       36.77207
H        -16.63535       87.43783       35.80776
H        -18.07423       86.92378       36.55243
N        -15.31845       87.53236       44.19326
C        -16.14518       88.01998       45.30343
C        -15.45957       87.90712       46.66320
O        -16.04775       88.34470       47.64347
C        -17.39585       87.12454       45.41701
C        -18.19669       86.96269       44.16019
O        -18.16119       85.78387       43.49930
O        -18.87653       87.88266       43.73541
H        -15.04897       86.55014       44.20288
H        -16.43434       89.07985       45.13491
H        -18.07031       87.46309       46.23446
H        -17.02084       86.12297       45.69622
N        -14.27752       87.25413       46.82764
C        -13.70592       86.96835       48.13252
C        -14.59308       86.05195       48.96240
O        -14.84510       86.34799       50.12085
H        -13.76881       86.89198       46.01005
H        -13.47509       87.90854       48.67716
H        -12.74812       86.42636       47.97335
N        -15.05425       84.88734       48.42778
C        -15.72671       83.82178       49.16363
C        -14.88978       82.53551       49.10113
O        -15.36202       81.49869       49.54644
C        -17.17917       83.62340       48.65747
C        -17.34513       83.43422       47.17495
O        -16.72298       82.43871       46.53127
O        -18.09856       84.16248       46.55183
H        -14.86470       84.70721       47.43760
H        -15.82343       84.07193       50.24290
H        -17.77495       84.51520       48.95194
H        -17.62363       82.74751       49.17825
N        -13.60341       82.54895       48.63238
C        -12.71492       81.39816       48.60637
C        -13.04802       80.34145       47.57071
O        -12.29856       79.37622       47.50706
H        -13.17493       83.43978       48.36062
H        -12.67700       80.94186       49.61964
H        -11.69070       81.75787       48.36402
N        -14.13651       80.41565       46.74804
C        -14.49742       79.35577       45.80559
C        -14.77602       79.88841       44.39974
O        -14.78435       81.09340       44.18568
C        -15.70596       78.55622       46.35278
C        -15.38941       77.89415       47.70468
O        -16.85388       79.36096       46.45029
H        -14.76817       81.21347       46.83860
H        -13.65131       78.63997       45.70709
H        -15.93501       77.72916       45.64855
H        -16.74510       79.96033       47.23320
H        -16.25741       77.29014       48.04076
H        -14.50691       77.22641       47.60820
H        -15.17336       78.65670       48.48336
N        -14.96367       79.00217       43.37707
C        -15.14274       79.34990       41.96735
C        -16.42050       78.70961       41.41212
O        -16.66416       77.53298       41.64126
C        -13.84342       78.94261       41.19550
C        -12.72787       79.96724       41.57128
C        -14.04110       78.88655       39.66833
C        -11.37016       79.73795       40.91070
H        -14.89652       77.99602       43.59599
H        -15.25105       80.44291       41.83136
H        -13.54820       77.91472       41.50267
H        -12.56895       79.95043       42.66995
H        -13.06010       80.99325       41.29039
H        -14.29642       79.87580       39.25790
H        -13.12117       78.52439       39.16648
H        -14.83408       78.15833       39.40054
H        -10.97418       78.73670       41.17451
H        -11.43503       79.84422       39.80850
H        -10.66029       80.51449       41.26999
N        -17.23302       79.43915       40.58639
C        -18.45627       78.95810       39.94017
C        -18.22821       78.73562       38.44588
O        -17.12581       78.94660       37.96194
C        -19.60325       80.00609       40.11608
C        -19.97037       80.27843       41.57268
O        -19.30384       81.20873       39.44342
H        -16.93644       80.39200       40.35589
H        -18.76995       77.98500       40.37767
H        -20.53405       79.61264       39.66071
H        -18.68635       81.74659       40.00321
H        -19.10589       80.71556       42.10188
H        -20.81167       81.00488       41.60915
H        -20.28592       79.34055       42.07394
N        -19.26638       78.34630       37.64728
C        -19.20151       78.24626       36.18744
C        -18.75906       79.56432       35.57749
O        -17.92424       79.55659       34.68438
C        -20.58642       77.87570       35.58812
C        -21.03500       76.46679       35.98838
O        -21.55382       78.81568       35.98667
H        -20.17435       78.16691       38.09754
H        -18.47659       77.45649       35.88636
H        -20.48503       77.89274       34.47646
H        -22.33060       78.71281       35.37731
H        -22.00555       76.23511       35.49972
H        -20.28743       75.71941       35.64932
H        -21.16823       76.37777       37.08535
N        -19.28201       80.73821       36.02816
C        -18.91860       82.04603       35.49222
C        -17.42127       82.26454       35.64024
O        -16.74095       82.53822       34.66178
C        -19.66426       83.19230       36.23718
C        -21.20324       83.05900       36.23758
C        -21.89612       84.19589       37.01485
C        -21.84497       85.57723       36.33850
N        -22.60346       85.59834       35.08539
H        -19.94742       80.68487       36.80879
H        -19.20438       82.09250       34.41780
H        -19.37395       84.15126       35.75778
H        -19.33460       83.22781       37.29830
H        -21.48663       82.12934       36.76698
H        -21.59692       82.97946       35.20494
H        -21.43657       84.26525       38.02598
H        -22.96626       83.93093       37.15807
H        -20.79763       85.89977       36.16014
H        -22.30458       86.31230       37.03619
H        -22.60875       86.57184       34.70527
H        -22.16851       84.97054       34.37383
H        -23.59275       85.30481       35.26039
N        -16.85774       82.16616       36.87351
C        -15.45484       82.44568       37.17545
C        -14.49764       81.41226       36.59871
O        -13.29773       81.64638       36.65242
C        -15.29547       82.50495       38.70960
C        -16.10283       83.68231       39.27535
C        -16.34596       83.66621       40.74199
O        -17.00050       84.71010       41.27512
O        -16.01321       82.72897       41.44649
H        -17.48733       81.91979       37.65136
H        -15.19248       83.44044       36.75006
H        -14.23460       82.61525       39.02474
H        -15.67662       81.55312       39.10497
H        -17.11498       83.74588       38.82590
H        -15.53592       84.59302       39.03879
N        -14.93259       80.24033       36.05984
C        -14.02626       79.25486       35.51335
H        -13.29541       78.93551       36.28654
H        -14.59799       78.36302       35.17766
H        -13.48734       79.68083       34.64104
H        -15.93234       80.01832       36.05219
Ca       -16.31766       84.48109       43.85774
O        -17.92617       80.99861       44.30192
H        -18.05225       80.04100       44.08337
H        -18.53049       81.15686       45.06973
O        -19.42877       83.28962       42.82853
H        -20.31124       83.49189       43.22865
H        -19.50431       83.59718       41.89044

Ca 1.0



