%chk=holoCaM.loop4.water3.frame478.chk
%nprocshared=20
%mem=10GB
%nosave
#b3lyp/svp scf=(tight,noincore,xqc) Test 
#IOP(5/87=12) Density=Current Pop=(MK,readradii) iop(6/33=2) iop(6/42=6)

holoCaM.loop4.water3.frame478 

   -3  1 
C         19.55520       57.56893       89.97370
C         19.57803       56.50131       91.02337
O         19.74393       55.34463       90.66306
H         20.51799       57.55417       89.41979
H         18.72736       57.36880       89.26078
H         19.41384       58.57416       90.41943
N         19.39901       56.80196       92.34482
C         19.42448       55.77185       93.37477
C         18.96076       56.30722       94.72579
O         19.53478       57.26783       95.21998
C         20.84514       55.18140       93.53425
C         20.80703       53.92959       94.36056
O         21.83692       53.32431       94.60135
O         19.61062       53.43079       94.73154
H         19.20524       57.77898       92.61162
H         18.72575       54.96876       93.04495
H         21.52555       55.93741       93.98163
H         21.26462       54.88388       92.55154
N         17.93150       55.69710       95.38499
C         17.37673       56.15256       96.65549
C         17.53509       55.11474       97.77826
O         17.46253       55.53715       98.92480
C         15.87785       56.53410       96.41266
C         15.80194       57.72255       95.41331
C         15.11875       56.86535       97.71411
C         14.39038       58.02119       94.90471
H         17.48632       54.88763       94.94061
H         17.92368       57.05766       97.00377
H         15.37766       55.64940       95.95721
H         16.40381       57.49455       94.50901
H         16.22983       58.63438       95.88602
H         15.58620       57.72557       98.23713
H         14.05450       57.09496       97.51286
H         15.09793       55.98789       98.39224
H         13.97743       57.12955       94.38611
H         13.70747       58.32488       95.72140
H         14.43595       58.85999       94.17819
N         17.69465       53.76793       97.56634
C         17.70980       52.79793       98.67428
C         18.97410       51.94359       98.76307
O         19.08743       51.19042       99.72078
C         16.43588       51.92237       98.62572
C         16.29986       51.01965       97.42741
O         17.16318       50.96494       96.56977
O         15.20401       50.24711       97.30849
H         17.72713       53.41094       96.60332
H         17.66269       53.33923       99.64359
H         15.55336       52.59754       98.65127
H         16.40008       51.28296       99.53407
N         19.97169       52.00835       97.83877
C         21.21746       51.26461       97.95211
C         21.02849       49.76324       97.96730
O         21.47840       49.12480       98.90855
H         19.87659       52.63867       97.03546
H         21.75114       51.58439       98.87402
H         21.86473       51.51662       97.08412
N         20.40816       49.13026       96.93320
C         20.29415       47.67369       96.82513
C         21.03085       47.12556       95.60308
O         21.52557       46.01011       95.67940
C         18.82693       47.18186       96.89492
C         17.86045       47.72529       95.87419
O         18.18935       48.57554       95.06891
O         16.58932       47.28214       95.87439
H         20.02289       49.72321       96.18857
H         20.78722       47.19398       97.70004
H         18.41635       47.43892       97.89433
H         18.83311       46.07314       96.80520
N         21.13949       47.84022       94.44770
C         21.83007       47.37531       93.25157
C         20.88486       47.24371       92.07309
O         21.35236       46.94757       90.98087
H         20.69984       48.76197       94.38820
H         22.32443       46.39444       93.41345
H         22.61945       48.11675       93.00187
N         19.54304       47.42712       92.21797
C         18.55705       47.30614       91.16014
C         17.81550       48.61811       90.98246
O         18.14244       49.59964       91.64398
C         17.57978       46.16765       91.52558
C         18.27264       44.79816       91.48024
C         17.31874       43.65347       91.72417
N         17.75931       42.38032       91.61261
O         16.14650       43.86250       92.00400
H         19.16403       47.64598       93.14361
H         19.03062       47.07014       90.18104
H         16.75465       46.12296       90.78839
H         17.13520       46.35375       92.52970
H         19.09648       44.75351       92.22472
H         18.70379       44.66497       90.46398
H         18.73937       42.18469       91.36131
H         17.11551       41.58924       91.76054
N         16.79725       48.70469       90.08565
C         16.05789       49.91972       89.79794
C         14.62724       49.74119       90.26539
O         13.96967       48.80149       89.83212
C         16.12002       50.20929       88.27168
C         15.38616       51.50906       87.90945
C         17.57311       50.29761       87.78087
H         16.52481       47.86364       89.55308
H         16.50634       50.78775       90.32984
H         15.63055       49.37085       87.72630
H         15.84609       52.37746       88.42736
H         15.42975       51.68329       86.81351
H         14.31775       51.44304       88.18773
H         18.11062       49.34436       87.96943
H         17.59361       50.47747       86.68480
H         18.11258       51.12183       88.29394
N         14.06340       50.64224       91.11603
C         12.65672       50.61528       91.49236
C         11.90066       51.54128       90.55717
O         12.52708       52.19783       89.74540
C         12.53006       51.04559       92.97679
C         11.13950       50.94849       93.55230
N         10.50974       49.75433       93.63769
O         10.58551       51.95377       93.97113
H         14.61573       51.46767       91.38985
H         12.25210       49.58824       91.35959
H         12.89812       52.09268       93.07422
H         13.17948       50.39787       93.59909
H         10.96847       48.89258       93.30986
H          9.56506       49.68992       94.04475
N         10.54879       51.61128       90.56580
C          9.78963       52.53392       89.71873
C         10.03910       53.99401       90.10791
O         10.13815       54.82424       89.21514
C          8.29825       52.12575       89.66140
C          7.68454       51.88107       91.01794
C          7.43424       50.55779       91.42956
C          7.39152       52.93654       91.89010
C          6.93011       50.29547       92.70201
C          6.87426       52.67147       93.16255
C          6.65298       51.34877       93.57557
O          6.18018       51.07796       94.80780
H         10.04950       50.96129       91.18514
H         10.13528       52.42151       88.66416
H          8.28605       51.16089       89.10515
H          7.69315       52.83765       89.05959
H          7.65965       49.72286       90.77620
H          7.56637       53.96014       91.58732
H          6.76726       49.27043       93.01090
H          6.65533       53.49335       93.83081
H          5.99226       51.77616       95.45028
N         10.24356       54.36630       91.40871
C         10.59258       55.73439       91.82659
C         11.96991       56.19316       91.33062
O         12.32857       57.33527       91.58425
C         10.60149       55.83849       93.37399
C          9.22418       55.62571       94.01778
C          8.25670       56.70693       93.62349
O          8.52733       57.99352       93.91846
O          7.22103       56.42662       93.04232
H         10.15156       53.64032       92.13092
H          9.83258       56.43779       91.42182
H         10.96143       56.84275       93.69059
H         11.31556       55.08644       93.77805
H          9.33663       55.65271       95.12229
H          8.82878       54.62867       93.74540
N         12.79459       55.36784       90.63380
C         14.13308       55.70733       90.17327
C         14.13400       55.77006       88.65425
O         14.58074       56.76697       88.10463
C         15.13088       54.64836       90.69127
C         15.13772       54.56617       92.23244
C         16.02125       53.46980       92.76594
O         16.01724       53.20176       94.08435
O         16.71265       52.79321       92.02283
H         12.47879       54.42208       90.43030
H         14.45990       56.69896       90.55994
H         16.15498       54.88888       90.32911
H         14.84053       53.65569       90.28535
H         14.10877       54.34923       92.58696
H         15.46405       55.53710       92.66559
N         13.60181       54.76207       87.90742
C         13.53727       54.79952       86.46473
H         12.98367       55.70276       86.13076
H         14.56163       54.80081       86.04066
H         12.99604       53.90200       86.09185
H         13.19095       53.94754       88.36874
Ca        18.88614       51.32898       94.39210
O         15.86766       50.04411       93.70579
H         15.36094       50.10014       94.55390
H         15.93716       49.07370       93.52366
O         21.59017       50.86970       93.49058
H         21.39870       50.90616       94.46174
H         22.56334       50.70746       93.44916
O         19.92594       52.43603       91.52781
H         20.11372       51.55075       91.12765
H         19.09717       52.73720       91.07996

Ca 1.0



