%chk=holoCaM.loop1.water2.frame344.chk
%nprocshared=20
%mem=10GB
%nosave
#b3lyp/svp scf=(tight,noincore,xqc) Test 
#IOP(5/87=12) Density=Current Pop=(MK,readradii) iop(6/33=2) iop(6/42=6)

holoCaM.loop1.water2.frame344 

   0  1 
C          3.88706       15.03615      114.27911
C          2.61405       15.21683      115.04681
O          2.62551       15.94396      116.03044
H          4.66525       14.61313      114.94813
H          3.74480       14.35285      113.41683
H          4.22990       16.02227      113.89999
N          1.46813       14.58463      114.65992
C          0.20926       14.77156      115.36117
C          0.07333       13.72744      116.46592
O         -0.00304       12.54053      116.18179
C         -0.96360       14.76628      114.36275
C         -2.21799       15.16597      115.06012
O         -2.26850       16.35651      115.67848
O         -3.15918       14.39952      115.13080
H          1.48643       13.97129      113.83100
H          0.21998       15.78939      115.81508
H         -1.06609       13.76051      113.89796
H         -0.77699       15.51308      113.56291
N          0.12566       14.12698      117.76643
C          0.20964       13.23143      118.91426
C         -1.12257       12.61362      119.33894
O         -1.08889       11.51940      119.88471
C          0.87708       14.00186      120.08277
C          1.21660       13.18077      121.33698
C          2.05347       11.93655      121.01147
C          2.53564       11.22646      122.27693
N          3.14463        9.93904      121.93887
H          0.31000       15.12059      117.92800
H          0.90707       12.41643      118.62666
H          0.23658       14.86085      120.38367
H          1.83515       14.41885      119.69729
H          0.28527       12.86899      121.85583
H          1.78550       13.84855      122.02223
H          2.94247       12.21823      120.40370
H          1.43055       11.22786      120.43018
H          1.68518       11.04884      122.97216
H          3.27783       11.87993      122.78744
H          2.39185        9.25891      121.68046
H          3.80995       10.03705      121.13756
H          3.66081        9.57031      122.76895
N         -2.31809       13.25937      119.18284
C         -3.60019       12.69325      119.63427
C         -4.55954       12.36260      118.47814
O         -5.62324       11.82291      118.75073
C         -4.24087       13.54345      120.76583
C         -4.56811       14.97907      120.45697
O         -5.12046       15.66379      121.29684
O         -4.19974       15.53894      119.29961
H         -2.31167       14.18145      118.72786
H         -3.42407       11.70497      120.11344
H         -3.55394       13.54446      121.64147
H         -5.18278       13.04565      121.08465
N         -4.20761       12.53600      117.16896
C         -4.88201       11.85827      116.05807
C         -5.93991       12.64400      115.29667
O         -6.41296       12.12982      114.29282
H         -3.26578       12.89772      116.97964
H         -5.31163       10.89140      116.39838
H         -4.09434       11.59931      115.31790
N         -6.38043       13.86499      115.69663
C         -7.41586       14.62997      114.97989
C         -6.99153       15.18368      113.60947
O         -7.83060       15.79836      112.96271
C         -7.89721       15.81381      115.85235
C         -6.74853       16.60831      116.39871
O         -5.86941       17.00649      115.65544
O         -6.63596       16.79415      117.72805
H         -6.00241       14.22926      116.58166
H         -8.29886       13.97524      114.80562
H         -8.48711       15.43009      116.71069
H         -8.56910       16.47680      115.26302
N         -5.73670       15.04776      113.10115
C         -5.32401       15.66902      111.85086
C         -5.32497       17.18143      111.96284
O         -5.96397       17.84598      111.16320
H         -5.03466       14.50320      113.61108
H         -5.96830       15.32235      111.01243
H         -4.27999       15.35932      111.62473
N         -4.56440       17.77687      112.92238
C         -4.35976       19.21884      113.08796
C         -3.21047       19.44049      114.05466
O         -3.27517       19.03064      115.20379
C         -5.59725       20.05661      113.55833
C         -6.35755       20.74632      112.41983
O         -6.46172       19.34839      114.40347
H         -4.02764       17.14319      113.53540
H         -4.02869       19.63663      112.11404
H         -5.21297       20.92774      114.13881
H         -6.77446       18.54827      113.91031
H         -6.81905       20.03366      111.71704
H         -7.15317       21.39958      112.83954
H         -5.65347       21.40478      111.86182
N         -2.11496       20.11190      113.61693
C         -0.96406       20.45017      114.43414
C         -1.27034       21.73050      115.20956
O         -1.62476       22.73787      114.61479
C          0.29868       20.47440      113.50918
C          0.67721       18.99782      113.17170
C          1.47916       21.22581      114.13966
C          1.81483       18.83202      112.16423
H         -2.12439       20.47344      112.65085
H         -0.77375       19.65228      115.18261
H          0.05423       21.02577      112.57372
H         -0.20854       18.47548      112.74842
H          0.96507       18.46686      114.10813
H          2.33939       21.26287      113.44152
H          1.19436       22.28143      114.33204
H          1.79997       20.75245      115.08311
H          1.54444       19.30638      111.19846
H          2.76365       19.26126      112.54275
H          1.98983       17.74770      111.98970
N         -1.12127       21.73745      116.56782
C         -1.33025       22.87745      117.45153
C          0.00332       23.53186      117.73571
O          1.00469       23.12760      117.17118
C         -1.95386       22.41976      118.81123
C         -3.32039       21.76352      118.67062
O         -1.06454       21.59536      119.52940
H         -0.72042       20.90843      117.00274
H         -1.99460       23.62922      116.97340
H         -2.14636       23.30383      119.44873
H         -1.21475       20.65475      119.26086
H         -4.03096       22.44859      118.16507
H         -3.21291       20.82463      118.09806
H         -3.71458       21.53086      119.68343
N          0.09130       24.54162      118.63893
C          1.34924       25.15210      119.04058
C          2.30571       24.11078      119.61893
O          3.41796       24.00769      119.12048
C          1.09444       26.30402      120.04716
C          0.28089       27.43745      119.40808
O          0.40452       25.84194      121.18251
H         -0.77502       24.87484      119.07974
H          1.83548       25.60295      118.14560
H          2.07643       26.74737      120.33730
H          1.07401       25.69361      121.89967
H          0.80609       27.82939      118.51168
H         -0.73083       27.09865      119.10136
H          0.15338       28.26511      120.13592
N          1.94916       23.30251      120.66127
C          2.87073       22.33626      121.26106
C          3.37892       21.30045      120.26911
O          4.55162       20.95710      120.32123
C          2.28853       21.64806      122.51735
C          1.02235       20.78616      122.30969
C          0.60780       20.07051      123.61039
C          1.55522       18.90715      123.97068
N          1.22830       18.34401      125.27905
H          1.00091       23.39388      121.05281
H          3.75556       22.89836      121.63524
H          2.05343       22.43008      123.27304
H          3.10624       21.02633      122.93032
H          1.16799       20.02174      121.52189
H          0.19324       21.45619      122.00000
H         -0.41107       19.64198      123.48362
H          0.56382       20.81655      124.43354
H          2.61182       19.23577      124.00167
H          1.46820       18.11780      123.18946
H          0.23707       18.01404      125.30376
H          1.86523       17.53648      125.46994
H          1.38136       19.06896      126.01799
N          2.54511       20.74751      119.35075
C          2.96064       19.73038      118.38458
C          4.02757       20.30168      117.45632
O          5.05393       19.66312      117.27191
C          1.72056       19.17477      117.63543
C          0.75994       18.49862      118.65316
C         -0.55681       18.00807      118.11663
O         -1.28878       18.73716      117.47661
O         -1.03983       16.83019      118.53681
H          1.57100       21.08237      119.33456
H          3.39876       18.85759      118.91850
H          2.02947       18.43251      116.86863
H          1.22165       20.01172      117.12094
H          0.49722       19.21543      119.44464
H          1.28130       17.65189      119.14962
N          3.88648       21.54427      116.91557
C          4.88930       22.20585      116.10423
H          5.77524       21.56578      115.91524
H          4.44350       22.50002      115.13131
H          5.22982       23.12760      116.62577
H          3.04447       22.08045      117.13081
Ca        -3.64740       16.55430      117.40473
O         -3.91840       18.75626      119.78945
H         -4.19178       19.36486      120.51964
H         -4.45633       17.94348      119.94678
O         -5.15080       19.93692      117.04009
H         -5.57281       19.12070      116.69305
H         -5.79069       20.27184      117.71325

Ca 1.0



