%chk=holoCaM-CaMKII.loop4.water2.frame253.chk
%nprocshared=20
%mem=10GB
%nosave
#b3lyp/svp scf=(tight,noincore,xqc) Test 
#IOP(5/87=12) Density=Current Pop=(MK,readradii) iop(6/33=2) iop(6/42=6)

holoCaM-CaMKII.loop4.water2.frame253 

   -3  1 
C         88.08720        3.05384       75.13948
C         87.77440        3.98592       76.27327
O         88.27144        5.10225       76.28159
H         89.17708        2.84738       75.11387
H         87.55038        2.08690       75.25122
H         87.77404        3.51733       74.18154
N         86.96951        3.57395       77.28782
C         86.62206        4.39258       78.43857
C         87.57900        4.04822       79.56494
O         87.72043        2.87923       79.89615
C         85.13633        4.15828       78.76188
C         84.67267        4.89410       79.97366
O         84.11555        4.20895       80.98467
O         84.76192        6.10673       80.03774
H         86.63319        2.59785       77.27908
H         86.73978        5.47399       78.20017
H         84.94718        3.07444       78.91880
H         84.52715        4.49718       77.89504
N         88.31753        5.03494       80.15528
C         89.43933        4.79086       81.05736
C         89.09916        5.15711       82.50063
O         89.81072        4.69518       83.38231
C         90.68993        5.56814       80.50740
C         91.01765        5.09798       79.06025
C         91.92694        5.45503       81.41932
C         92.14080        5.88563       78.38008
H         88.12682        6.01232       79.89917
H         89.66296        3.70088       81.07499
H         90.42067        6.64806       80.46581
H         90.11883        5.23260       78.42229
H         91.28332        4.01900       79.06000
H         91.71840        5.86934       82.42533
H         92.26012        4.40088       81.50803
H         92.76286        6.07161       81.03138
H         92.24797        5.54583       77.32796
H         91.90159        6.96577       78.37963
H         93.11700        5.72964       78.87988
N         88.05055        5.96751       82.83399
C         87.72020        6.30556       84.22128
C         86.25514        6.01794       84.57424
O         85.85516        6.32421       85.68881
C         88.18184        7.74442       84.54321
C         87.53740        8.84464       83.76038
O         86.67233        8.60874       82.93986
O         87.92741       10.11625       83.96888
H         87.49482        6.40220       82.08447
H         88.31594        5.68074       84.92241
H         89.27718        7.79642       84.35422
H         88.01689        7.94651       85.62322
N         85.43162        5.33300       83.72631
C         84.11053        4.84749       84.10496
C         83.01967        5.89368       84.11561
O         82.35354        6.02839       85.13225
H         85.79996        5.00556       82.82338
H         84.17350        4.31849       85.08158
H         83.78798        4.08609       83.36963
N         82.73259        6.62073       82.99440
C         81.58379        7.52797       82.89231
C         80.66025        7.19774       81.70519
O         79.54411        7.69724       81.70209
C         82.07538        8.99071       82.88260
C         83.00327        9.24326       81.73355
O         84.32866        9.27133       81.93587
O         82.57350        9.29652       80.60143
H         83.36620        6.52786       82.19031
H         80.95304        7.41531       83.80179
H         82.63793        9.14485       83.82893
H         81.23317        9.71666       82.86798
N         81.04122        6.38951       80.66567
C         80.15932        5.98543       79.57201
C         80.56397        6.55279       78.21987
O         80.01248        6.11306       77.22000
H         81.99818        6.02095       80.62436
H         79.10269        6.27446       79.75498
H         80.19343        4.87546       79.52026
N         81.46163        7.57116       78.11256
C         81.87533        8.19884       76.86268
C         83.39300        8.21851       76.75396
O         84.08183        7.81509       77.68317
C         81.35778        9.65573       76.80641
C         79.82561        9.74053       76.76870
C         79.36699       11.17324       76.64848
N         79.63263       12.07307       77.62461
O         78.74354       11.52455       75.65772
H         81.85122        7.95546       78.96939
H         81.46942        7.64028       75.98988
H         81.73329       10.14875       75.88377
H         81.75243       10.21796       77.68062
H         79.38396        9.29351       77.68407
H         79.46271        9.16804       75.88611
H         80.14702       11.79708       78.47327
H         79.31661       13.05037       77.53445
N         83.97885        8.68328       75.61668
C         85.41847        8.77636       75.40412
C         85.75048       10.21032       75.00268
O         85.15834       10.69134       74.04425
C         85.82769        7.76213       74.29861
C         87.34034        7.79375       74.03452
C         85.42183        6.33114       74.69877
H         83.36728        8.95944       74.83152
H         85.97993        8.50671       76.32761
H         85.30228        8.01667       73.35135
H         87.89651        7.51059       74.95010
H         87.60471        7.07483       73.23001
H         87.66687        8.80210       73.70783
H         84.32231        6.24751       74.82442
H         85.72362        5.60534       73.91391
H         85.90140        6.04507       75.65740
N         86.70226       10.94505       75.65750
C         87.04178       12.31968       75.28154
C         88.31975       12.35630       74.44307
O         88.85428       11.30340       74.13135
C         87.05053       13.25785       76.52360
C         88.30357       13.22090       77.37205
N         88.26300       12.96265       78.69513
O         89.37380       13.49633       76.86550
H         87.23420       10.50412       76.41795
H         86.24156       12.72037       74.62209
H         86.14455       13.05426       77.13662
H         86.96541       14.30510       76.16573
H         87.37236       12.76610       79.16773
H         89.13468       12.96978       79.24877
N         88.84763       13.54127       74.01749
C         90.01303       13.65874       73.13510
C         91.24795       12.95606       73.68420
O         91.84310       12.16764       72.96571
C         90.33757       15.14622       72.88306
C         91.47440       15.29869       71.90089
C         91.33426       14.83789       70.58052
C         92.68588       15.88800       72.29769
C         92.38930       14.95958       69.67411
C         93.74127       16.00786       71.38856
C         93.59575       15.54259       70.07299
O         94.60527       15.64911       69.18622
H         88.37891       14.40934       74.31808
H         89.75058       13.19019       72.16135
H         90.59168       15.62721       73.85390
H         89.44451       15.66646       72.47446
H         90.40868       14.38225       70.25192
H         92.81806       16.24616       73.31133
H         92.26795       14.59758       68.66098
H         94.67164       16.45935       71.70852
H         95.45666       16.04421       69.42138
N         91.69658       13.21053       74.94106
C         92.82447       12.51943       75.56376
C         92.58805       11.01150       75.60067
O         93.45570       10.27583       75.15031
C         93.07333       13.06662       76.98900
C         93.51141       14.54443       76.95530
C         93.76659       15.07533       78.33539
O         94.87302       15.49306       78.63819
O         92.76820       15.11970       79.23816
H         91.18991       13.91737       75.48447
H         93.75123       12.70794       74.97593
H         93.89154       12.48013       77.46396
H         92.15564       12.94717       77.60710
H         92.73350       15.18138       76.48731
H         94.43973       14.63108       76.34788
N         91.42503       10.47970       76.08445
C         91.15620        9.03203       76.11716
C         91.16351        8.40828       74.72090
O         91.21086        7.19021       74.61956
C         89.77907        8.73610       76.76454
C         89.67559        9.23567       78.21193
C         88.26240        9.26650       78.72492
O         87.52096        8.16858       78.91879
O         87.77523       10.33515       79.03179
H         90.71002       11.13797       76.42405
H         91.96351        8.55622       76.71284
H         89.55610        7.64567       76.75271
H         89.02527        9.25142       76.13937
H         90.04290       10.27772       78.27331
H         90.31259        8.62492       78.88212
N         91.08923        9.17785       73.60236
C         91.12182        8.65113       72.25850
H         91.02914        9.48892       71.53141
H         92.08940        8.13866       72.07760
H         90.27741        7.95012       72.10022
H         90.98509       10.18487       73.70093
Ca        85.74574        8.67189       80.25480
O         84.14548       11.60431       79.37608
H         83.15767       11.54120       79.38406
H         84.34258       12.41300       79.91193
O         86.56937       11.49167       81.43101
H         86.99124       12.37530       81.57266
H         87.32734       10.85578       81.44192

Ca 1.0



