%chk=holoCaM-CaMKII.loop3.water2.frame479.chk
%nprocshared=20
%mem=10GB
%nosave
#b3lyp/svp scf=(tight,noincore,xqc) Test 
#IOP(5/87=12) Density=Current Pop=(MK,readradii) iop(6/33=2) iop(6/42=6)

holoCaM-CaMKII.loop3.water2.frame479 

   0  1 
C         83.60296       78.01299       67.80235
C         84.27061       78.35615       66.50821
O         85.48945       78.27457       66.44590
H         82.50041       78.10954       67.72725
H         83.85378       76.96662       68.07587
H         83.97135       78.69579       68.59639
N         83.54052       78.77754       65.43493
C         84.14899       79.11713       64.15975
C         84.06931       80.61473       63.96724
O         82.97625       81.16182       63.90844
C         83.45028       78.36091       63.02098
C         84.17967       78.49081       61.72063
O         85.34373       79.16263       61.63107
O         83.73802       77.92902       60.73321
H         82.51994       78.89199       65.53390
H         85.21644       78.80492       64.16748
H         82.40586       78.72374       62.90530
H         83.41022       77.27934       63.26197
N         85.21360       81.34856       63.92990
C         85.22309       82.80126       63.89960
C         84.65752       83.34809       62.60303
O         83.72868       84.14154       62.66220
C         86.65142       83.32792       64.13808
C         86.63943       84.83503       64.42389
C         88.03822       85.35824       64.75540
C         87.96584       86.83281       65.17335
N         89.29336       87.35770       65.48462
H         86.11281       80.85405       64.01810
H         84.60949       83.15522       64.75960
H         87.31103       83.08557       63.27608
H         87.05807       82.82512       65.04420
H         85.97803       85.01436       65.30092
H         86.23363       85.39163       63.55150
H         88.69598       85.24138       63.86658
H         88.46595       84.77068       65.59779
H         87.31749       86.92493       66.07437
H         87.51410       87.43534       64.35441
H         89.73025       86.80113       66.25496
H         89.89909       87.32236       64.63302
H         89.20108       88.35169       65.79571
N         85.16565       82.96610       61.39408
C         84.68672       83.51657       60.12716
C         83.65002       82.62497       59.45510
O         83.17144       83.00166       58.39347
C         85.86891       83.91497       59.20645
C         86.71867       82.78397       58.69688
O         86.45177       81.51352       59.02523
O         87.66377       83.02238       57.96256
H         85.89350       82.23639       61.37644
H         84.14650       84.46843       60.32435
H         86.52683       84.61876       59.76071
H         85.46486       84.44985       58.31973
N         83.17695       81.48501       60.04613
C         82.05822       80.73030       59.50020
C         82.34553       80.02911       58.19069
O         81.40070       79.52372       57.60087
H         83.54150       81.18934       60.96134
H         81.21094       81.43683       59.35370
H         81.72664       79.96098       60.22978
N         83.60125       79.94816       57.66292
C         83.86043       79.36765       56.34842
C         83.55040       77.87266       56.25048
O         83.61694       77.35262       55.14425
C         85.31764       79.65961       55.90916
C         86.42955       78.82545       56.59090
N         87.03879       77.92108       55.63125
O         85.94078       78.04386       57.63102
H         84.38493       80.36988       58.17509
H         83.20150       79.91382       55.63626
H         85.53146       80.73687       56.08267
H         85.39214       79.51940       54.80844
H         87.56832       78.47464       54.92399
H         87.72894       77.35559       56.16306
N         83.23594       77.11250       57.34705
C         82.92200       75.69439       57.27258
C         83.82921       74.79265       58.09975
O         83.59470       73.59661       58.05103
H         83.19137       77.54943       58.27631
H         82.96787       75.33266       56.22307
H         81.87836       75.55084       57.62666
N         84.85112       75.25615       58.89153
C         85.71222       74.34966       59.66985
C         86.54010       75.07366       60.73935
O         86.45931       76.28265       60.86533
C         86.56961       73.45486       58.73189
C         87.51432       74.17705       57.79413
C         88.62486       74.89253       58.27662
C         87.31317       74.09111       56.40383
C         89.51628       75.50178       57.38600
C         88.20297       74.70200       55.51658
C         89.31233       75.40592       56.00508
O         90.17489       76.00643       55.16017
H         84.99324       76.26636       58.97027
H         85.04929       73.67851       60.25911
H         85.87552       72.83734       58.12791
H         87.15908       72.72429       59.32182
H         88.81910       74.96775       59.33666
H         86.46883       73.54514       56.00127
H         90.36922       76.04734       57.76944
H         88.02905       74.62687       54.45029
H         90.05440       75.98295       54.19984
N         87.32611       74.34560       61.59391
C         88.02411       74.90487       62.75165
C         89.52900       74.77009       62.57668
O         90.00444       73.68900       62.26413
C         87.57120       74.15794       64.04411
C         86.03159       74.14726       64.23255
C         88.26974       74.72554       65.29846
C         85.39081       75.52642       64.37230
H         87.39745       73.32862       61.45648
H         87.78169       75.98076       62.87982
H         87.87557       73.09087       63.95445
H         85.78826       73.55714       65.14333
H         85.55706       73.62948       63.37180
H         87.94385       74.17229       66.20460
H         89.37014       74.61057       65.22343
H         88.04843       75.80470       65.43445
H         85.79572       76.05978       65.25142
H         85.55564       76.13503       63.46146
H         84.29720       75.40624       64.51914
N         90.34048       75.83422       62.85116
C         91.79955       75.79516       62.76776
C         92.42257       75.93814       64.14788
O         91.70472       76.05288       65.12459
C         92.27542       76.93461       61.85089
O         91.88411       78.17344       62.38142
H         89.90547       76.70984       63.17822
H         92.14628       74.82785       62.34527
H         91.82678       76.79238       60.84577
H         93.38170       76.90961       61.74875
H         92.21187       78.86657       61.75255
N         93.77749       75.93254       64.29521
C         94.45187       76.15887       65.57089
C         94.18205       77.56295       66.08347
O         93.79978       77.71445       67.23527
C         95.96510       75.97699       65.40396
H         94.35723       75.77545       63.45762
H         94.11725       75.40483       66.31886
H         96.18398       74.94370       65.06042
H         96.37544       76.69495       64.66227
H         96.47760       76.13523       66.37769
N         94.36034       78.63868       65.26265
C         94.18143       80.02949       65.67489
C         92.82446       80.25895       66.30628
O         92.76295       80.74110       67.42868
C         94.34851       80.95815       64.46259
H         94.63365       78.45278       64.28462
H         94.96667       80.29040       66.41857
H         93.58822       80.73185       63.68291
H         94.23596       82.01985       64.76893
H         95.35610       80.82579       64.01492
N         91.69251       79.91014       65.64169
C         90.34957       80.07214       66.19094
C         90.22682       79.29890       67.49223
O         89.90264       79.89321       68.51074
C         89.30527       79.58694       65.16360
C         89.30767       80.47359       63.90194
C         88.38627       79.96085       62.83420
O         88.26525       80.58625       61.79314
O         87.71053       78.80694       62.99719
H         91.80480       79.48000       64.71245
H         90.15312       81.14876       66.39811
H         88.28786       79.62510       65.61335
H         89.52833       78.53232       64.88929
H         90.31983       80.53068       63.45305
H         89.00226       81.50089       64.19161
N         90.51858       77.97180       67.52922
C         90.49172       77.16169       68.72845
H         90.16938       77.73637       69.62093
H         89.79756       76.30876       68.57985
H         91.51082       76.76105       68.91793
H         90.80499       77.51422       66.66131
Ca        86.31993       78.92977       59.65091
O         89.02938       80.01176       57.99810
H         89.05594       80.45375       58.88380
H         89.89784       80.23881       57.58117
O         89.49016       77.80177       60.01909
H         90.29937       78.18954       59.60018
H         89.52309       78.11971       60.95503

Ca 1.0



