%chk=holoCaM.loop1.water2.frame76.chk
%nprocshared=20
%mem=10GB
%nosave
#b3lyp/svp scf=(tight,noincore,xqc) Test 
#IOP(5/87=12) Density=Current Pop=(MK,readradii) iop(6/33=2) iop(6/42=6)

holoCaM.loop1.water2.frame76 

   0  1 
C         81.53031       33.07558      117.94277
C         81.63169       34.55879      117.74990
O         82.49192       35.17495      118.36265
H         80.71225       32.64176      117.32978
H         82.48665       32.59916      117.64043
H         81.33078       32.85327      119.01107
N         80.79774       35.20159      116.88594
C         80.88734       36.63229      116.62798
C         80.50063       37.40878      117.88539
O         79.34131       37.38063      118.27481
C         79.99493       36.97325      115.41876
C         80.12251       38.37489      114.92610
O         79.49410       38.70833      113.94033
O         80.93183       39.25988      115.52764
H         80.10980       34.63939      116.35996
H         81.94075       36.85124      116.33818
H         78.92953       36.76839      115.66226
H         80.29245       36.31318      114.57365
N         81.45935       38.03679      118.62601
C         81.20452       38.61926      119.94177
C         80.44124       39.93917      119.90228
O         79.89516       40.31740      120.92887
C         82.53546       38.78212      120.72345
C         83.39496       39.97255      120.25154
C         84.78629       39.95687      120.90191
C         85.56379       41.27068      120.69786
N         85.76312       41.61023      119.28853
H         82.43084       37.94220      118.31576
H         80.60764       37.86608      120.50396
H         83.10488       37.82970      120.63229
H         82.31830       38.93858      121.80280
H         82.86690       40.90913      120.53130
H         83.51729       39.95575      119.15320
H         85.36683       39.09824      120.49607
H         84.68010       39.81551      121.99910
H         86.55561       41.16811      121.19227
H         85.01809       42.09983      121.20044
H         86.26487       40.83735      118.79546
H         84.84717       41.80336      118.82384
H         86.33948       42.48145      119.23293
N         80.47357       40.74954      118.80155
C         79.87904       42.09106      118.76088
C         78.85235       42.25150      117.64662
O         78.30464       43.33766      117.51599
C         81.00018       43.15735      118.67686
C         81.87081       43.09409      117.45090
O         81.59309       42.25053      116.44430
O         82.89163       43.76168      117.40556
H         81.00212       40.42762      117.97976
H         79.34014       42.29795      119.71073
H         81.65670       42.99857      119.56094
H         80.57416       44.18045      118.75488
N         78.50583       41.21696      116.82963
C         77.49006       41.32425      115.79824
C         77.89158       42.25591      114.68035
O         77.15391       43.18108      114.37391
H         78.93590       40.29128      116.95999
H         76.52462       41.63718      116.25167
H         77.34079       40.31956      115.34519
N         79.03837       42.01976      113.98980
C         79.44579       42.74066      112.78800
C         79.52663       41.78401      111.59457
O         80.04449       42.16889      110.55536
C         80.76330       43.51114      113.04381
C         81.97375       42.69724      113.41025
O         81.92850       41.48266      113.49559
O         83.13252       43.33394      113.66298
H         79.63426       41.24443      114.30812
H         78.70116       43.52098      112.51747
H         80.58205       44.23068      113.87131
H         81.01418       44.09909      112.13435
N         78.96825       40.53655      111.65613
C         78.96525       39.57496      110.56682
C         80.31249       38.95286      110.25149
O         80.33901       38.12802      109.34846
H         78.43456       40.26552      112.49034
H         78.54618       40.05522      109.65604
H         78.29057       38.73513      110.84424
N         81.46637       39.28656      110.90573
C         82.77164       38.74017      110.53482
C         83.53342       38.15456      111.72013
O         83.11870       38.29026      112.86339
C         83.61481       39.83355      109.83117
C         82.99710       40.25607      108.48985
O         83.80738       40.94822      110.66653
H         81.43767       39.99470      111.64553
H         82.64172       37.90305      109.81393
H         84.61626       39.42131      109.58551
H         82.96450       41.47270      110.68898
H         82.91712       39.37585      107.81657
H         81.98522       40.69057      108.63175
H         83.64387       41.01512      108.00229
N         84.66815       37.43796      111.46816
C         85.51913       36.78670      112.45952
C         86.95970       37.26574      112.26010
O         87.46577       37.21084      111.14768
C         85.37638       35.23531      112.30831
C         83.95109       34.81687      112.77595
C         86.45020       34.46951      113.10826
C         83.63980       33.32511      112.63957
H         84.93366       37.29901      110.48064
H         85.20398       37.03387      113.49634
H         85.51980       34.96569      111.23858
H         83.19270       35.36458      112.17848
H         83.81398       35.09860      113.84499
H         86.37771       33.37779      112.93349
H         87.46773       34.75396      112.77454
H         86.34998       34.65795      114.19183
H         82.59606       33.13951      112.97227
H         83.74121       33.00443      111.58251
H         84.29859       32.70840      113.28406
N         87.70025       37.66670      113.33354
C         89.11390       38.03583      113.29199
C         89.92994       36.88642      113.85123
O         89.35844       35.86791      114.19158
C         89.37825       39.31933      114.13947
C         88.63103       40.54851      113.62400
O         89.10716       39.09844      115.50520
H         87.27589       37.58657      114.25991
H         89.44845       38.21091      112.24639
H         90.45278       39.58500      114.06812
H         88.13263       39.19101      115.65778
H         88.88872       41.43178      114.24852
H         88.91372       40.76031      112.57192
H         87.54385       40.37458      113.68960
N         91.27640       36.98112      114.00056
C         92.07642       35.94853      114.65927
C         91.60731       35.73178      116.09388
O         91.51944       34.59149      116.52645
C         93.57535       36.33060      114.66432
C         94.14531       36.37573      113.24075
O         93.75616       37.57233      115.29789
H         91.74199       37.84092      113.67775
H         91.98357       34.98428      114.10931
H         94.12222       35.53721      115.22687
H         94.71925       37.64329      115.52658
H         94.01701       35.38768      112.74916
H         93.64321       37.14891      112.62388
H         95.22966       36.60894      113.27804
N         91.27516       36.79639      116.87702
C         90.86824       36.69257      118.27857
C         89.66670       35.77203      118.42233
O         89.70673       34.81334      119.17980
C         90.49265       38.08701      118.87273
C         91.49502       39.23389      118.62798
C         92.92472       38.92304      119.07531
C         93.85768       40.08278      118.69829
N         95.23597       39.79630      119.08870
H         91.31340       37.72159      116.43569
H         91.71902       36.28273      118.86537
H         90.33737       37.96253      119.96712
H         89.53037       38.44016      118.44135
H         91.12758       40.13991      119.15864
H         91.50632       39.49593      117.55101
H         93.28757       38.01079      118.55653
H         92.94330       38.74995      120.17287
H         93.51806       41.01909      119.19427
H         93.82069       40.23880      117.59564
H         95.84559       40.59322      118.79446
H         95.29728       39.68369      120.12626
H         95.56900       38.92459      118.61579
N         88.55596       36.03606      117.69076
C         87.30421       35.28335      117.72854
C         87.52727       33.84144      117.29828
O         87.06564       32.93994      117.98324
C         86.27325       36.01158      116.82905
C         85.97515       37.40991      117.41511
C         85.18391       38.31632      116.52620
O         85.60126       38.67102      115.44058
O         84.08819       38.88822      117.01537
H         88.62171       36.83629      117.04447
H         86.88356       35.27891      118.75942
H         85.32335       35.43740      116.75435
H         86.70591       36.11019      115.81789
H         86.90609       37.96952      117.62249
H         85.44940       37.28399      118.38768
N         88.27483       33.55498      116.19940
C         88.57016       32.21846      115.72802
H         89.66727       32.04723      115.77856
H         88.06019       31.43581      116.32543
H         88.24910       32.12642      114.66911
H         88.69553       34.32713      115.68606
Ca        83.15407       40.69735      116.11243
O         86.02651       41.84267      116.05309
H         86.35791       42.67650      115.63521
H         86.84578       41.33726      116.28394
O         85.41754       41.20442      112.94978
H         85.59945       42.17559      113.01041
H         84.47687       41.10052      113.23264

Ca 1.0



