%chk=holoCaM.loop3.water2.frame97.chk
%nprocshared=20
%mem=10GB
%nosave
#b3lyp/svp scf=(tight,noincore,xqc) Test 
#IOP(5/87=12) Density=Current Pop=(MK,readradii) iop(6/33=2) iop(6/42=6)

holoCaM.loop3.water2.frame97 

   0  1 
C         99.42163       16.24704       35.56470
C         98.64458       15.51322       34.51929
O         99.09492       14.46776       34.07541
H        100.42095       16.51081       35.16267
H         98.90154       17.17721       35.87622
H         99.53865       15.59159       36.45263
N         97.44189       15.98397       34.09556
C         96.63846       15.27374       33.11465
C         97.33651       15.34100       31.76745
O         97.50553       16.44073       31.25676
C         95.23618       15.90406       33.07731
C         94.20244       15.07764       32.39163
O         94.46518       13.87312       31.84688
O         93.05907       15.49813       32.36871
H         97.07122       16.84881       34.52133
H         96.52906       14.22492       33.46602
H         95.27633       16.91694       32.61910
H         94.87289       16.02546       34.11962
N         97.80704       14.21726       31.14986
C         98.60328       14.27960       29.92409
C         97.76386       14.09831       28.67327
O         98.31550       14.26160       27.59311
C         99.77517       13.27410       29.96389
C        100.72872       13.45439       31.16264
C        101.38291       14.84766       31.27860
C        102.22829       15.27827       30.06432
N        103.37442       14.39568       29.84071
H         97.63876       13.29737       31.58549
H         99.03596       15.29753       29.81777
H        100.36390       13.35870       29.02561
H         99.36252       12.24194       30.00176
H        101.52021       12.67819       31.10120
H        100.16626       13.25818       32.09742
H        102.02943       14.85741       32.18279
H        100.59166       15.60863       31.44318
H        102.60498       16.30721       30.25779
H        101.60170       15.32456       29.14787
H        103.94447       14.77462       29.05017
H        103.97280       14.35897       30.69779
H        103.05718       13.43444       29.58365
N         96.42550       13.83449       28.72640
C         95.56678       13.85413       27.54512
C         94.57927       15.02155       27.60418
O         93.88866       15.24321       26.61938
C         94.89737       12.48564       27.29528
C         94.05065       11.97676       28.42343
O         92.85533       11.79263       28.25684
O         94.61791       11.64576       29.59960
H         95.98056       13.68428       29.64080
H         96.17813       14.05197       26.63769
H         95.68415       11.72507       27.10250
H         94.27709       12.56586       26.37547
N         94.51522       15.86247       28.68143
C         93.76676       17.10664       28.69262
C         92.27952       16.94489       28.50568
O         91.74896       17.53630       27.57573
H         95.08484       15.68280       29.51828
H         94.17283       17.77017       27.89683
H         93.93460       17.61745       29.66628
N         91.53319       16.20684       29.37753
C         90.07065       16.13355       29.31035
C         89.40754       16.70533       30.57069
O         88.18936       16.80600       30.58438
C         89.61208       14.68862       28.95182
C         89.66752       13.60805       30.05942
N         88.35766       13.40452       30.66449
O         90.54344       13.99851       31.05535
H         92.03107       15.70130       30.11858
H         89.72535       16.76984       28.46715
H         90.25171       14.35022       28.10822
H         88.57560       14.71842       28.55135
H         87.72369       12.99569       29.94192
H         88.45889       12.68499       31.41617
N         90.13923       17.10342       31.66117
C         89.57550       17.69695       32.86788
C         89.69950       16.79436       34.08607
O         89.36562       17.24096       35.17440
H         91.15987       16.99442       31.66401
H         88.49689       17.93218       32.74349
H         90.10815       18.65393       33.05608
N         90.05947       15.48493       33.96366
C         89.99057       14.50456       35.03906
C         91.18322       13.57471       35.00536
O         91.50162       13.07558       33.93375
C         88.74363       13.61833       34.84699
C         87.46707       14.40873       34.95537
C         86.97112       15.13052       33.85655
C         86.76127       14.42953       36.16783
C         85.78628       15.86290       33.97279
C         85.58280       15.16801       36.28475
C         85.08970       15.88659       35.18637
O         83.95099       16.60056       35.28672
H         90.24866       15.12204       33.02952
H         89.89409       14.98638       36.03825
H         88.75703       12.85290       35.65539
H         88.76214       13.06018       33.88450
H         87.49742       15.12150       32.91006
H         87.13155       13.88440       37.02739
H         85.41021       16.41268       33.11921
H         85.05613       15.18074       37.23023
H         83.44284       16.64155       36.10954
N         91.80135       13.18442       36.15853
C         92.80837       12.12390       36.17872
C         92.28866       10.90518       36.92778
O         91.27060       10.98576       37.60272
C         94.17414       12.62716       36.73031
C         94.08448       13.09110       38.20784
C         94.70544       13.73856       35.81479
C         95.43688       13.49253       38.80411
H         91.48868       13.58925       37.05400
H         92.98815       11.76623       35.14370
H         94.89333       11.78188       36.67898
H         93.69151       12.25434       38.82403
H         93.39068       13.95256       38.30434
H         95.73381       14.04407       36.09227
H         94.74789       13.36943       34.77059
H         94.03984       14.62623       35.85380
H         95.86089       14.37875       38.28972
H         95.30285       13.76377       39.87244
H         96.15562       12.64818       38.73908
N         92.94018        9.71652       36.80217
C         92.55234        8.47973       37.47124
C         93.69870        7.99588       38.34269
O         94.72629        8.65223       38.38506
C         92.16179        7.43033       36.41302
O         93.24391        7.15418       35.56609
H         93.75889        9.67885       36.18123
H         91.66997        8.64390       38.12693
H         91.31227        7.83445       35.81641
H         91.83133        6.49168       36.90903
H         92.89635        6.54630       34.86217
N         93.59396        6.85882       39.08326
C         94.68486        6.35039       39.91273
C         95.90393        5.99698       39.07160
O         97.00535        6.37421       39.44493
C         94.22399        5.13398       40.71953
H         92.70344        6.33794       39.06049
H         94.97071        7.12337       40.66182
H         93.91659        4.29942       40.05639
H         95.04489        4.78990       41.38587
H         93.36383        5.42256       41.36281
N         95.77395        5.30358       37.90303
C         96.90245        4.96283       37.03528
C         97.67327        6.20136       36.61059
O         98.88191        6.24030       36.79414
C         96.40974        4.22077       35.78633
H         94.82434        5.02960       37.60553
H         97.58792        4.27542       37.57952
H         95.72186        4.85673       35.18846
H         97.27432        3.93419       35.14877
H         95.87357        3.29400       36.08076
N         97.02225        7.26686       36.06599
C         97.68444        8.50647       35.65633
C         98.49027        9.09872       36.80176
O         99.62979        9.48517       36.58394
C         96.65444        9.55147       35.17444
C         95.88418        9.10657       33.91689
C         94.89435       10.15126       33.48924
O         93.58170        9.85485       33.44109
O         95.27280       11.26695       33.17116
H         95.99769        7.19929       35.98236
H         98.37671        8.30437       34.80839
H         97.19001       10.49631       34.93087
H         95.95116        9.76241       36.00259
H         95.33255        8.16456       34.10834
H         96.59667        8.92740       33.08360
N         97.96848        9.16286       38.05718
C         98.66938        9.70099       39.20311
H         99.65645       10.12865       38.93263
H         98.05098       10.49930       39.66413
H         98.82351        8.89369       39.95049
H         97.03613        8.77676       38.22459
Ca        92.61678       13.20674       30.79339
O         90.67071       10.57968       32.71968
H         89.78226       10.59738       32.28382
H         90.47316       10.47008       33.68406
O         92.90176        9.36752       30.55240
H         92.25893        8.88444       29.97535
H         93.41887        8.65234       31.00124

Ca 1.0



