%chk=holoCaM.loop2.water2.frame282.chk
%nprocshared=20
%mem=10GB
%nosave
#b3lyp/svp scf=(tight,noincore,xqc) Test 
#IOP(5/87=12) Density=Current Pop=(MK,readradii) iop(6/33=2) iop(6/42=6)

holoCaM.loop2.water2.frame282 

   -2  1 
C         39.36251       75.43875       39.92329
C         38.98252       74.38975       38.91485
O         38.37186       73.39402       39.27307
H         40.46341       75.58431       39.92353
H         38.87748       76.40184       39.65136
H         39.03429       75.15636       40.94551
N         39.30682       74.57722       37.60882
C         38.91498       73.68318       36.52335
C         39.50431       72.28455       36.64637
O         40.71686       72.15329       36.73889
C         39.36674       74.29200       35.18254
C         38.94148       73.43820       34.02965
O         39.77761       72.99458       33.25986
O         37.63997       73.13686       33.85983
H         39.82096       75.44085       37.37082
H         37.80454       73.62148       36.50536
H         40.47264       74.41323       35.17393
H         38.91579       75.29523       35.05560
N         38.68818       71.19048       36.55588
C         39.17042       69.81273       36.53069
C         38.76963       69.05489       35.25437
O         39.15941       67.90070       35.14205
C         38.60124       69.07771       37.75042
H         37.67208       71.33952       36.48458
H         40.27935       69.79068       36.59897
H         38.97316       68.03160       37.79065
H         38.90825       69.59261       38.68530
H         37.48971       69.05767       37.70584
N         37.95371       69.58837       34.29105
C         37.39868       68.79723       33.18159
C         37.45123       69.47093       31.80308
O         37.03701       68.82924       30.84635
C         35.94765       68.40188       33.52706
C         35.16268       69.54724       34.07877
O         35.06978       70.70610       33.41645
O         34.65961       69.45616       35.18789
H         37.58796       70.53969       34.42266
H         37.95766       67.84428       33.05993
H         35.96815       67.61587       34.31280
H         35.43411       67.97253       32.64050
N         37.95448       70.71834       31.59421
C         38.07453       71.31924       30.26845
C         36.76696       71.67830       29.57254
O         36.84718       72.15072       28.44708
H         38.33961       71.23643       32.38645
H         38.65349       70.62778       29.61749
H         38.65651       72.26233       30.35536
N         35.53961       71.51328       30.14789
C         34.29127       71.87632       29.47412
C         34.25166       73.35913       29.10069
O         33.83215       73.66864       27.99441
C         33.03995       71.41219       30.26906
C         32.81771       72.02030       31.63001
N         31.76504       71.62603       32.38317
O         33.57965       72.86022       32.06782
H         35.48301       71.11113       31.08789
H         34.23517       71.29452       28.52566
H         33.11685       70.31120       30.40654
H         32.13474       71.61698       29.65760
H         31.11248       70.90613       32.04260
H         31.60351       72.03719       33.31442
N         34.75894       74.31530       29.93374
C         34.87178       75.72570       29.58968
C         34.18852       76.66343       30.57071
O         34.36521       77.86271       30.41127
H         35.16639       74.02538       30.82932
H         34.47763       75.93762       28.57286
H         35.95500       75.97330       29.58846
N         33.38526       76.22149       31.58389
C         32.71577       77.11568       32.53229
C         33.07159       76.75721       33.97284
O         33.76787       75.77751       34.19830
C         31.17800       77.05342       32.31742
C         30.76710       77.56178       30.92620
O         30.67824       75.75846       32.55610
H         33.20497       75.21544       31.67366
H         33.03764       78.16766       32.37254
H         30.67967       77.73612       33.03649
H         30.86570       75.19806       31.75848
H         31.20205       76.93083       30.12289
H         29.66045       77.54449       30.83151
H         31.11391       78.60814       30.78649
N         32.56934       77.50074       35.00505
C         32.72606       77.16148       36.41598
C         31.44815       76.47569       36.86362
O         30.36905       77.04399       36.77132
C         33.11726       78.41489       37.26750
C         34.63579       78.68989       37.08821
C         32.78215       78.22175       38.76052
C         35.16697       79.91379       37.83798
H         31.94635       78.29079       34.78198
H         33.53398       76.41313       36.54843
H         32.51683       79.28651       36.92540
H         34.85898       78.82448       36.00868
H         35.20670       77.80831       37.45747
H         33.34272       77.36786       39.18441
H         33.00674       79.13567       39.34334
H         31.69451       78.05417       38.90133
H         36.25535       80.01603       37.64056
H         34.64942       80.83289       37.49694
H         35.05331       79.80451       38.93608
N         31.53094       75.20021       37.33485
C         30.39214       74.38360       37.73581
C         29.90566       74.83865       39.09138
O         30.49549       75.75108       39.65012
C         30.80458       72.89226       37.85034
C         31.48508       72.37365       36.61802
O         32.67210       72.89520       36.26944
O         31.00917       71.45194       35.97507
H         32.46820       74.79476       37.41668
H         29.59932       74.45582       36.95834
H         29.90253       72.27572       38.05076
H         31.51872       72.75702       38.69188
N         28.86392       74.23084       39.72029
C         28.51916       74.58049       41.08850
C         29.64988       74.18025       42.05492
O         30.14378       75.08063       42.71711
C         27.13768       74.03189       41.49800
C         26.85120       74.37550       42.93922
C         26.77863       75.71785       43.35520
C         26.69088       73.35265       43.88788
C         26.55957       76.02765       44.69889
C         26.47064       73.66784       45.23105
C         26.40749       75.00374       45.63673
H         28.32542       73.50117       39.22803
H         28.40437       75.68737       41.13090
H         27.07362       72.94458       41.34429
H         26.35500       74.47475       40.84448
H         26.90075       76.52542       42.64451
H         26.75073       72.31264       43.59127
H         26.51374       77.06242       45.01259
H         26.35606       72.87525       45.95829
H         26.24306       75.24586       46.67799
N         30.13602       72.89833       42.20249
C         31.23446       72.53563       43.09966
C         32.43557       73.45456       43.01405
O         32.90943       73.91926       44.04154
C         31.63450       71.12909       42.62951
C         30.30217       70.55725       42.23252
C         29.67460       71.72684       41.47821
H         30.84547       72.50084       44.14225
H         32.23644       71.18557       41.69327
H         32.20710       70.53917       43.37687
H         30.33634       69.60385       41.66364
H         29.72634       70.39046       43.17266
H         30.03165       71.78920       40.43077
H         28.58884       71.55987       41.51313
N         32.96766       73.76543       41.80217
C         34.13350       74.62262       41.61699
C         33.88833       75.98895       42.23371
O         34.67124       76.40322       43.07677
C         34.47296       74.73062       40.11387
C         34.89769       73.36061       39.54115
C         35.19967       73.38821       38.07215
O         35.11162       74.41723       37.42426
O         35.55022       72.24574       37.45527
H         32.49690       73.38145       40.96923
H         35.01505       74.16869       42.12373
H         35.31266       75.44664       39.97173
H         33.58546       75.10718       39.56252
H         34.09431       72.61117       39.68480
H         35.80194       73.00640       40.07983
N         32.79186       76.71875       41.89486
C         32.45696       77.99834       42.48644
H         31.48070       77.91297       43.00954
H         33.21755       78.33979       43.21869
H         32.36516       78.76371       41.68987
H         32.13962       76.33417       41.20628
Ca        33.90297       72.14612       34.61748
O         36.34490       75.26397       32.67116
H         36.80403       76.03572       33.08387
H         37.01660       74.87914       32.05309
O         36.66743       76.08825       35.78766
H         35.72981       76.35331       35.63366
H         37.17244       76.93743       35.74489

Ca 1.0



