%chk=holoCaM-CaMKII.loop2.water2.frame285.chk
%nprocshared=20
%mem=10GB
%nosave
#b3lyp/svp scf=(tight,noincore,xqc) Test 
#IOP(5/87=12) Density=Current Pop=(MK,readradii) iop(6/33=2) iop(6/42=6)

holoCaM-CaMKII.loop2.water2.frame285 

   -2  1 
C         50.55738       37.13124       52.69611
C         51.67132       37.96724       52.14012
O         51.96744       39.01912       52.68544
H         49.76835       37.00325       51.92601
H         50.95253       36.13156       52.97808
H         50.11369       37.60506       53.59677
N         52.34904       37.53365       51.04488
C         53.48598       38.23674       50.46291
C         53.06713       39.60304       49.91958
O         52.12341       39.66934       49.14480
C         54.09101       37.37281       49.33780
C         55.43743       37.84866       48.88136
O         56.08018       38.83771       49.53117
O         55.98589       37.28444       47.94923
H         52.06110       36.63154       50.63325
H         54.26003       38.34022       51.25318
H         53.38451       37.34096       48.48084
H         54.24517       36.33456       49.70543
N         53.74561       40.73148       50.27478
C         53.38478       42.08507       49.85908
C         54.45901       42.74223       48.99135
O         54.35893       43.93996       48.75898
C         53.16771       42.91967       51.12919
H         54.56421       40.63461       50.88719
H         52.43490       42.09709       49.28229
H         54.10552       42.97480       51.72492
H         52.85112       43.95335       50.87134
H         52.37337       42.46208       51.75561
N         55.49437       42.03507       48.44825
C         56.58808       42.68465       47.71473
C         57.53833       41.75205       46.92483
O         58.40559       42.29505       46.25237
C         57.43964       43.52462       48.70248
C         58.04084       42.66623       49.78614
O         58.94013       43.10692       50.48353
O         57.61027       41.40110       49.97232
H         55.49089       41.02469       48.58283
H         56.14126       43.35199       46.94473
H         56.86070       44.34406       49.17581
H         58.26378       44.00252       48.12792
N         57.45661       40.38736       46.90678
C         58.31250       39.55136       46.07419
C         59.79508       39.52697       46.43108
O         60.52534       38.89836       45.67757
H         56.72345       39.89751       47.41928
H         58.20414       39.89301       45.02114
H         57.94749       38.50169       46.11589
N         60.33582       40.16451       47.51617
C         61.78594       40.19544       47.74814
C         62.45585       38.82344       47.92623
O         63.64667       38.74441       47.65712
C         62.21658       41.18331       48.87006
C         61.49346       41.07137       50.22196
N         62.19666       41.79002       51.27533
O         61.27158       39.76999       50.62509
H         59.71858       40.69073       48.14853
H         62.23644       40.60775       46.81646
H         62.02445       42.22129       48.52436
H         63.31318       41.08021       49.01904
H         62.17573       42.80979       51.05864
H         61.67948       41.64456       52.17307
N         61.79700       37.72026       48.38334
C         62.41773       36.39843       48.52140
C         62.56008       35.93952       49.97031
O         62.98253       34.81469       50.19278
H         60.81636       37.81904       48.66025
H         63.43367       36.37593       48.07173
H         61.79280       35.66946       47.96213
N         62.26135       36.77537       50.99976
C         62.37716       36.49147       52.42272
C         61.02360       36.67711       53.07585
O         60.39583       37.71025       52.88000
C         63.37857       37.46107       53.09720
C         64.80522       37.25023       52.60256
O         63.01927       38.80192       52.87256
H         61.94092       37.70227       50.76522
H         62.73894       35.45435       52.59988
H         63.39551       37.24601       54.19374
H         62.41556       39.07216       53.61148
H         64.87985       37.46324       51.51596
H         65.48670       37.93619       53.15024
H         65.12683       36.20544       52.79817
N         60.51579       35.71486       53.88858
C         59.22522       35.86620       54.54977
C         59.36090       36.96108       55.61307
O         60.12327       36.77802       56.55205
C         58.74091       34.50958       55.15307
C         58.77679       33.36747       54.08768
C         57.31150       34.67170       55.70886
C         58.49556       31.97933       54.66417
H         61.07908       34.86754       54.04186
H         58.47984       36.15557       53.77871
H         59.43303       34.23189       55.97869
H         59.78382       33.27564       53.63921
H         58.06955       33.58561       53.25881
H         56.60717       34.92243       54.88462
H         56.96119       33.74336       56.20103
H         57.26550       35.47938       56.46710
H         57.46303       31.89576       55.05289
H         58.62133       31.21879       53.86362
H         59.22079       31.75047       55.47504
N         58.69776       38.14874       55.49383
C         58.88551       39.27798       56.41196
C         57.99281       39.15411       57.63244
O         57.27282       38.17615       57.73766
C         58.64020       40.60857       55.67270
C         59.63349       40.78957       54.56053
O         59.25463       40.89988       53.40701
O         60.95031       40.84553       54.83799
H         58.11089       38.28916       54.66302
H         59.93843       39.29489       56.77248
H         58.76416       41.46937       56.36128
H         57.60520       40.63312       55.27607
N         58.03951       40.07885       58.63685
C         57.30834       39.92696       59.89235
C         55.79117       40.10383       59.72442
O         55.09725       39.14538       60.02728
C         57.96938       40.78227       61.00106
C         57.44036       40.51622       62.39244
C         57.44715       39.21317       62.92787
C         56.97874       41.57749       63.19076
C         56.99223       38.97840       64.22712
C         56.53569       41.33827       64.49629
C         56.54011       40.03986       65.01255
H         58.70936       40.85932       58.55099
H         57.48291       38.88060       60.22229
H         57.93185       41.85928       60.76743
H         59.04831       40.51391       61.02025
H         57.80791       38.37343       62.35003
H         56.97793       42.59212       62.81234
H         56.99935       37.97248       64.62695
H         56.19449       42.16074       65.11122
H         56.19901       39.85580       66.02293
N         55.17908       41.23658       59.23242
C         53.74035       41.32979       58.96173
C         53.21532       40.16031       58.15092
O         52.17481       39.60575       58.47761
C         53.61690       42.60211       58.10677
C         54.70799       43.46338       58.67839
C         55.85010       42.45832       58.83317
H         53.18712       41.44435       59.92094
H         53.91718       42.39644       57.05299
H         52.59960       43.05051       58.09235
H         54.96067       44.36867       58.08619
H         54.37181       43.78240       59.69223
H         56.38910       42.27510       57.87798
H         56.52569       42.87553       59.59641
N         53.92945       39.73254       57.07567
C         53.53790       38.64985       56.18211
C         53.32763       37.36325       56.96464
O         52.28352       36.74170       56.83013
C         54.61632       38.43516       55.08693
C         54.89744       39.70517       54.24788
C         55.92616       39.48173       53.17545
O         56.32832       40.43123       52.52427
O         56.41974       38.25536       52.92401
H         54.82671       40.20615       56.90830
H         52.58938       38.92091       55.66637
H         54.27006       37.62429       54.40869
H         55.56863       38.11117       55.56176
H         55.29073       40.51340       54.89078
H         53.96629       40.07937       53.77840
N         54.27785       36.92760       57.83320
C         54.15097       35.72051       58.61655
H         55.03709       35.61368       59.28081
H         53.24118       35.76874       59.25066
H         54.10369       34.83817       57.94584
H         55.11606       37.49391       57.96752
Ca        59.04214       39.86218       50.67019
O         57.56161       35.99307       51.43081
H         57.78210       35.24470       50.82217
H         56.59426       35.89206       51.61260
O         58.53318       37.27252       49.18478
H         58.49098       38.01261       48.52983
H         58.75719       36.47366       48.64533

Ca 1.0



