%chk=holoCaM-CaMKII.loop4.water2.frame260.chk
%nprocshared=20
%mem=10GB
%nosave
#b3lyp/svp scf=(tight,noincore,xqc) Test 
#IOP(5/87=12) Density=Current Pop=(MK,readradii) iop(6/33=2) iop(6/42=6)

holoCaM-CaMKII.loop4.water2.frame260 

   -3  1 
C         81.28313       82.69351       66.28953
C         80.53644       83.15782       67.50616
O         81.04172       84.01090       68.22077
H         82.23607       82.21142       66.59072
H         80.68677       81.96287       65.70198
H         81.50173       83.56595       65.63912
N         79.32656       82.61697       67.81443
C         78.51124       83.03675       68.94521
C         78.54222       81.94032       69.99372
O         78.30369       80.78859       69.65608
C         77.09227       83.33172       68.43170
C         76.18375       83.94077       69.45708
O         75.04805       84.23096       69.13260
O         76.60523       84.21738       70.70507
H         78.96209       81.85395       67.22160
H         78.91258       83.97602       69.38810
H         76.63177       82.39625       68.04411
H         77.16234       84.05978       67.59375
N         78.86119       82.23117       71.28982
C         79.11659       81.21183       72.30576
C         77.92546       81.03915       73.25144
O         77.86241       80.01188       73.91125
C         80.43243       81.55154       73.09555
C         81.59381       81.96940       72.14665
C         80.86512       80.37683       73.99878
C         82.85516       82.43756       72.88454
H         78.97607       83.21659       71.55087
H         79.24949       80.23825       71.78431
H         80.21613       82.43342       73.74035
H         81.27109       82.83756       71.53402
H         81.85381       81.13776       71.45834
H         81.10615       79.48577       73.38048
H         81.74934       80.63907       74.61088
H         80.08381       80.10829       74.73237
H         82.61173       83.26501       73.58496
H         83.33304       81.61163       73.44748
H         83.59993       82.80952       72.14993
N         76.94657       81.98401       73.37951
C         75.80141       81.83611       74.28408
C         74.46318       81.84680       73.53752
O         73.43465       81.70014       74.18251
C         75.90330       82.87949       75.41958
C         75.84652       84.30533       74.97154
O         75.46073       84.60632       73.72554
O         76.06022       85.19953       75.77180
H         77.02695       82.85800       72.84427
H         75.84363       80.85064       74.79550
H         76.88631       82.72476       75.91531
H         75.10807       82.71426       76.17839
N         74.40395       81.92509       72.17533
C         73.18789       81.73252       71.40162
C         72.15583       82.83109       71.52378
O         71.01078       82.53474       71.83263
H         75.27227       82.01548       71.63073
H         72.74257       80.74653       71.65817
H         73.46806       81.69435       70.32558
N         72.47410       84.11028       71.18674
C         71.49240       85.18017       71.00220
C         71.52793       85.70610       69.57034
O         70.92510       86.73861       69.30862
C         71.67225       86.30473       72.04612
C         73.00132       86.99830       72.11541
O         74.03427       86.67067       71.32448
O         73.18559       87.80852       73.00969
H         73.45853       84.31662       70.97709
H         70.45835       84.80750       71.17016
H         71.50216       85.84791       73.04560
H         70.88738       87.07684       71.89402
N         72.17232       85.02754       68.57134
C         72.25376       85.51440       67.20483
C         73.16367       86.71941       67.04978
O         73.25131       87.22849       65.94363
H         72.59016       84.10669       68.76133
H         71.23033       85.75123       66.84090
H         72.66970       84.71362       66.55506
N         73.88345       87.21900       68.09856
C         74.75927       88.37899       68.00349
C         76.17532       88.02749       68.41335
O         76.42018       86.97253       68.97571
C         74.26105       89.48322       68.95587
C         72.85635       89.98774       68.60362
C         72.35872       91.03238       69.57623
N         71.14528       91.59809       69.38997
O         73.03897       91.37171       70.53488
H         73.81528       86.76797       69.01069
H         74.78409       88.76209       66.96052
H         74.95907       90.34920       68.92494
H         74.25318       89.07939       69.99335
H         72.13839       89.14090       68.61291
H         72.88025       90.42666       67.58326
H         70.55830       91.32800       68.58746
H         70.79357       92.30971       70.04760
N         77.16810       88.91783       68.14418
C         78.55030       88.76192       68.56487
C         78.96787       90.05064       69.25344
O         78.94333       91.09409       68.61669
C         79.43275       88.43204       67.32212
C         80.94031       88.53128       67.60425
C         79.12206       87.00566       66.82970
H         76.93162       89.75642       67.59280
H         78.66416       87.92046       69.28202
H         79.20812       89.15834       66.51039
H         81.51952       88.28063       66.68947
H         81.21873       89.56650       67.88777
H         81.24004       87.83439       68.40730
H         78.05179       86.89701       66.56173
H         79.72864       86.75964       65.93256
H         79.36253       86.26300       67.62381
N         79.42455       90.03435       70.54096
C         80.07441       91.19286       71.14800
C         81.56389       91.05813       70.91104
O         81.97146       90.07646       70.31533
C         79.70836       91.39664       72.64312
C         80.16250       90.31445       73.59556
N         79.54892       89.11327       73.64058
O         81.06497       90.55134       74.38387
H         79.51795       89.12380       71.00343
H         79.75703       92.12002       70.62341
H         78.61496       91.54973       72.76446
H         80.19620       92.34237       72.96434
H         78.74254       88.90582       73.03866
H         79.85893       88.40077       74.31764
N         82.44178       92.02733       71.28302
C         83.86492       91.92085       70.97814
C         84.50579       90.73736       71.68957
O         85.35045       90.08014       71.09594
C         84.60331       93.22039       71.34319
C         86.01587       93.21843       70.80248
C         86.24007       93.18220       69.41271
C         87.11719       93.25681       71.67111
C         87.54050       93.18174       68.90395
C         88.41929       93.25498       71.15888
C         88.63434       93.21832       69.77267
O         89.88330       93.21991       69.26514
H         82.08504       92.87502       71.74746
H         83.95786       91.78253       69.87796
H         84.58658       93.34557       72.44827
H         84.07641       94.08989       70.89344
H         85.40887       93.15880       68.71885
H         86.96933       93.28343       72.74309
H         87.69679       93.15487       67.83238
H         89.25988       93.28254       71.83996
H         90.66845       93.24942       69.82988
N         84.14040       90.40249       72.96391
C         84.74928       89.30375       73.72035
C         84.53575       87.92539       73.06812
O         85.11293       86.95312       73.53126
C         84.18341       89.30344       75.16637
C         85.06079       88.57123       76.19587
C         86.36339       89.29773       76.40031
O         87.42530       88.73856       76.18127
O         86.36056       90.57469       76.83266
H         83.42555       90.98492       73.42399
H         85.83752       89.52716       73.75524
H         83.15906       88.86878       75.15028
H         84.08651       90.34910       75.53287
H         85.23744       87.51861       75.89763
H         84.52997       88.55734       77.17141
N         83.73410       87.77707       71.97621
C         83.50035       86.53282       71.25905
C         84.21863       86.60876       69.91964
O         84.95433       85.68772       69.59353
C         81.98103       86.29661       71.09236
C         81.26107       86.28300       72.45005
C         79.78788       86.01426       72.32400
O         79.22379       85.03476       73.05276
O         79.08491       86.70938       71.60986
H         83.24938       88.59382       71.60816
H         83.91177       85.66165       71.81632
H         81.81611       85.33005       70.56813
H         81.54086       87.11052       70.48174
H         81.39239       87.27460       72.92607
H         81.70995       85.51451       73.11324
N         84.12492       87.71615       69.12840
C         84.88022       87.87030       67.90490
H         85.96701       87.76468       68.11419
H         84.56244       87.11257       67.16105
H         84.71009       88.88553       67.48326
H         83.54352       88.50843       69.41905
Ca        75.80236       86.51978       72.63737
O         77.65624       87.15793       74.73674
H         76.87041       87.70682       74.98468
H         78.11196       86.96571       75.59375
O         76.33866       89.32074       72.00370
H         76.06741       89.43631       72.94931
H         76.10613       90.17872       71.56972

Ca 1.0



