%chk=holoCaM-CaMKII.loop4.water2.frame154.chk
%nprocshared=20
%mem=10GB
%nosave
#b3lyp/svp scf=(tight,noincore,xqc) Test 
#IOP(5/87=12) Density=Current Pop=(MK,readradii) iop(6/33=2) iop(6/42=6)

holoCaM-CaMKII.loop4.water2.frame154 

   -3  1 
C        -10.54179       83.62834       61.15115
C        -10.69362       82.32165       61.86799
O        -10.40943       81.28814       61.27972
H        -10.82843       84.48162       61.80156
H         -9.48147       83.75832       60.84837
H        -11.18692       83.63467       60.24901
N        -11.11398       82.29071       63.16188
C        -11.21857       81.05348       63.91811
C        -12.31617       80.17074       63.34770
O        -13.41784       80.65730       63.13208
C        -11.47830       81.34965       65.40623
C        -11.14333       80.16912       66.27238
O        -11.19048       80.28733       67.48013
O        -10.65704       79.03651       65.72924
H        -11.31596       83.18364       63.63823
H        -10.22372       80.55451       63.86063
H        -12.51942       81.70127       65.57385
H        -10.78129       82.15212       65.73225
N        -12.08664       78.85121       63.10713
C        -13.04948       77.96066       62.47700
C        -13.77956       77.16021       63.54698
O        -14.98114       77.35091       63.68130
C        -12.33551       77.07460       61.40680
C        -11.54916       77.96493       60.40382
C        -13.34860       76.17023       60.68160
C        -10.69738       77.18021       59.40415
H        -11.18337       78.46214       63.38241
H        -13.81692       78.57298       61.94989
H        -11.59980       76.42209       61.92477
H        -10.83678       78.60376       60.96635
H        -12.24774       78.63067       59.85265
H        -13.88491       75.52288       61.40599
H        -14.09117       76.78312       60.12800
H        -12.83932       75.49079       59.96879
H        -10.11681       77.89314       58.78036
H         -9.98181       76.52244       59.93983
H        -11.32254       76.56856       58.72478
N        -13.14514       76.24552       64.34278
C        -13.87322       75.48095       65.35988
C        -14.28895       76.33278       66.56517
O        -15.01368       75.82343       67.40875
C        -13.10525       74.20379       65.77658
C        -11.81223       74.42960       66.50441
O        -11.39949       75.66837       66.81149
O        -11.13370       73.47155       66.83826
H        -12.14639       76.05083       64.18104
H        -14.80171       75.09748       64.87937
H        -12.89410       73.61418       64.85752
H        -13.75867       73.58652       66.43148
N        -13.90362       77.63780       66.70126
C        -14.38798       78.50948       67.75953
C        -13.92960       78.10881       69.14279
O        -14.77816       77.84443       69.98292
H        -13.29330       78.06971       65.99480
H        -15.49961       78.53822       67.71582
H        -14.02365       79.54360       67.57644
N        -12.60326       78.10605       69.46889
C        -12.10757       77.83631       70.82022
C        -11.40654       79.04988       71.44944
O        -11.01757       78.95201       72.60459
C        -11.22204       76.56981       70.81555
C         -9.92604       76.68618       70.05953
O         -9.54237       77.84880       69.51110
O         -9.19520       75.71397       69.96388
H        -11.92241       78.32089       68.72927
H        -12.96520       77.60850       71.48973
H        -11.81618       75.74181       70.37065
H        -10.97464       76.29160       71.86222
N        -11.23793       80.22758       70.77380
C        -10.68288       81.44310       71.35623
C         -9.41511       81.93075       70.67376
O         -9.03325       83.06385       70.93073
H        -11.56579       80.30765       69.80777
H        -10.47124       81.33728       72.44146
H        -11.45946       82.23140       71.24806
N         -8.66903       81.12823       69.85952
C         -7.41427       81.54611       69.22914
C         -7.42821       81.24151       67.74138
O         -8.37491       80.63292       67.26530
C         -6.23961       80.79012       69.88276
C         -6.06603       81.16676       71.36011
C         -4.90285       80.43195       71.97265
N         -4.91551       79.08261       72.08093
O         -3.94092       81.06294       72.38449
H         -8.96402       80.15513       69.72501
H         -7.25247       82.63956       69.35255
H         -5.29164       81.04143       69.35973
H         -6.41045       79.69675       69.78353
H         -6.98270       80.92856       71.94000
H         -5.88487       82.26286       71.42263
H         -5.72324       78.53323       71.75323
H         -4.11808       78.58489       72.50372
N         -6.38705       81.62581       66.94185
C         -6.30759       81.28097       65.52633
C         -5.02079       80.50086       65.29435
O         -3.94732       81.08149       65.38749
C         -6.36852       82.55691       64.63799
C         -6.40466       82.19410       63.14371
C         -7.59909       83.41537       64.97167
H         -5.61603       82.17534       67.35170
H         -7.17342       80.64328       65.24888
H         -5.46647       83.17880       64.83315
H         -5.50816       81.61009       62.85507
H         -7.31368       81.59809       62.91033
H         -6.42115       83.11576       62.52355
H         -8.53646       82.84646       64.79844
H         -7.56952       83.74803       66.03073
H         -7.61099       84.32866       64.33852
N         -5.05229       79.16341       65.03075
C         -3.84873       78.36412       64.79373
C         -3.24099       78.74165       63.44345
O         -3.87774       79.46894       62.70258
C         -4.23511       76.86394       64.91687
C         -3.09466       75.87508       64.88551
N         -2.72819       75.20772       66.00454
O         -2.51712       75.64065       63.83867
H         -5.96343       78.68919       65.04588
H         -3.12445       78.58920       65.60760
H         -4.98516       76.57950       64.14851
H         -4.73266       76.76081       65.90577
H         -3.19996       75.37737       66.90438
H         -1.95697       74.52441       65.97344
N         -2.00052       78.32507       63.06314
C         -1.41194       78.65420       61.76114
C         -2.23759       78.06097       60.62759
O         -2.59535       78.78590       59.71037
C          0.04853       78.16183       61.69933
C          0.74447       78.54995       60.41165
C          0.84367       79.90030       60.02580
C          1.31644       77.56365       59.59059
C          1.49328       80.25304       58.83986
C          1.97475       77.92049       58.40914
C          2.06355       79.26751       58.02937
O          2.69574       79.62623       56.89375
H         -1.44220       77.77724       63.73294
H         -1.39155       79.76045       61.65538
H          0.07471       77.05898       61.84295
H          0.60908       78.62584       62.53964
H          0.41906       80.68505       60.63775
H          1.26158       76.51831       59.86715
H          1.55695       81.29554       58.55335
H          2.41690       77.14948       57.79105
H          3.11213       78.97713       56.30905
N         -2.63724       76.75854       60.68408
C         -3.55245       76.10989       59.74293
C         -4.72242       77.01588       59.40752
O         -4.99073       77.24459       58.23613
C         -4.07980       74.80269       60.39941
C         -5.10902       74.03374       59.55437
C         -5.61730       72.83312       60.30488
O         -6.92608       72.73255       60.60954
O         -4.85017       71.94689       60.64603
H         -2.34646       76.22200       61.51080
H         -3.01475       75.86313       58.80092
H         -4.56183       75.06126       61.37001
H         -3.21766       74.13461       60.61660
H         -4.65139       73.70785       58.59695
H         -5.97778       74.68924       59.32897
N         -5.46475       77.55651       60.40581
C         -6.65189       78.36914       60.17661
C         -6.29193       79.63985       59.42090
O         -6.85899       79.87961       58.36442
C         -7.38057       78.66105       61.50985
C         -7.71398       77.34207       62.24651
C         -8.57393       77.53514       63.44852
O         -9.55241       76.82604       63.60942
O         -8.23723       78.42750       64.39255
H         -5.16525       77.35721       61.36917
H         -7.37144       77.78089       59.56287
H         -8.32037       79.20808       61.27742
H         -6.75501       79.29846       62.17244
H         -6.78709       76.86400       62.60965
H         -8.21712       76.62892       61.55968
N         -5.31670       80.47085       59.88258
C         -4.86743       81.66504       59.19652
H         -3.79486       81.54890       58.92763
H         -5.44148       81.86371       58.26842
H         -4.96760       82.53851       59.87406
H         -4.83432       80.23197       60.75112
Ca        -9.44891       77.49968       66.83889
O         -6.42005       77.42362       68.02957
H         -7.09949       78.14243       68.05649
H         -6.44788       77.02230       68.93418
O         -7.40728       75.37491       65.76375
H         -7.63223       74.56188       66.28206
H         -7.23272       75.04591       64.84638

Ca 1.0



