%chk=holoCaM.loop2.water2.frame273.chk
%nprocshared=20
%mem=10GB
%nosave
#b3lyp/svp scf=(tight,noincore,xqc) Test 
#IOP(5/87=12) Density=Current Pop=(MK,readradii) iop(6/33=2) iop(6/42=6)

holoCaM.loop2.water2.frame273 

   -2  1 
C         38.30808       94.23504       64.25132
C         37.56700       94.16095       62.94407
O         36.54133       93.50413       62.87783
H         39.21722       94.86951       64.16831
H         37.65008       94.68294       65.02634
H         38.61708       93.22032       64.57384
N         38.02627       94.84247       61.86210
C         37.33470       94.91746       60.57849
C         37.22781       93.56750       59.87239
O         38.24335       92.92619       59.64384
C         38.07584       95.92855       59.68588
C         37.42526       96.08351       58.35108
O         38.07409       95.88866       57.33657
O         36.12661       96.42846       58.26780
H         38.89445       95.38875       61.97898
H         36.31583       95.32870       60.75065
H         39.13292       95.61100       59.54633
H         38.07016       96.91892       60.18974
N         36.00978       93.12345       59.43622
C         35.79119       91.89518       58.67680
C         35.18106       92.15072       57.28909
O         34.97897       91.18108       56.57071
C         34.84098       90.99629       59.48062
H         35.18382       93.69555       59.64232
H         36.75113       91.35546       58.53087
H         33.85893       91.50160       59.62148
H         34.66724       90.03163       58.95774
H         35.27019       90.78018       60.48155
N         34.80967       93.39845       56.86450
C         34.08044       93.65130       55.61391
C         34.62254       94.81614       54.77391
O         34.07337       95.05980       53.70756
C         32.58055       93.85431       55.91911
C         32.22581       94.93013       56.91172
O         33.15130       95.61387       57.61066
O         31.04665       95.13654       57.14792
H         34.95432       94.18484       57.50214
H         34.13063       92.75421       54.95763
H         32.17617       92.90326       56.32877
H         32.04525       94.05693       54.96573
N         35.69617       95.55987       55.15587
C         36.28241       96.62813       54.35214
C         35.44452       97.89037       54.18074
O         35.92606       98.78753       53.50275
H         36.17804       95.30768       56.01915
H         36.53379       96.22077       53.34828
H         37.23372       96.94465       54.83135
N         34.20415       98.05457       54.72755
C         33.38187       99.24564       54.47644
C         33.84939      100.52432       55.19362
O         33.18933      101.54228       55.03412
C         31.89498       98.94406       54.76705
C         31.55169       98.64002       56.19498
N         30.27248       98.34444       56.51430
O         32.40969       98.65471       57.06128
H         33.79340       97.27723       55.26208
H         33.40191       99.44960       53.38255
H         31.59307       98.06828       54.15215
H         31.27859       99.81201       54.44739
H         29.54023       98.32496       55.79088
H         30.00485       98.13051       57.47890
N         34.98026      100.57507       55.95681
C         35.47954      101.80239       56.57248
C         34.72525      102.27568       57.80772
O         35.13158      103.29025       58.35728
H         35.57193       99.73972       56.03443
H         35.51426      102.60973       55.80810
H         36.52384      101.62270       56.90831
N         33.66042      101.60166       58.32930
C         32.96135      101.99654       59.55607
C         33.04625      100.88488       60.60016
O         33.59742       99.83408       60.30654
C         31.48825      102.34820       59.22058
C         31.41351      103.60407       58.34728
O         30.85810      101.28976       58.54398
H         33.32808      100.75739       57.85079
H         33.43554      102.89150       60.01637
H         30.92215      102.58899       60.14812
H         30.73800      100.55413       59.19801
H         30.35236      103.85575       58.13645
H         31.87560      104.46560       58.87657
H         31.93912      103.45166       57.38112
N         32.49734      101.03981       61.84297
C         32.52114       99.99549       62.86717
C         31.12887       99.41380       62.98154
O         30.17345      100.15895       63.15759
C         32.99243      100.51737       64.25999
C         34.36741      101.22378       64.17833
C         33.04762       99.33294       65.25962
C         34.81308      101.82787       65.51695
H         31.99411      101.91383       62.05987
H         33.22522       99.18520       62.57340
H         32.24836      101.26010       64.62482
H         34.29705      102.06077       63.45189
H         35.14581      100.51558       63.82248
H         33.29914       99.66307       66.28530
H         32.06438       98.82988       65.34476
H         33.79733       98.57975       64.93050
H         35.76682      102.37795       65.38089
H         34.04541      102.53626       65.89593
H         34.99533      101.04629       66.28217
N         30.95716       98.06698       62.93142
C         29.66611       97.39953       63.02121
C         29.54335       96.65966       64.32611
O         30.47392       96.68992       65.11193
C         29.51517       96.51882       61.77224
C         29.29181       97.46547       60.62992
O         30.26169       97.80083       59.76667
O         28.23615       98.07437       60.56982
H         31.79231       97.46882       62.84511
H         28.83492       98.13937       63.05993
H         28.64708       95.82893       61.83118
H         30.43552       95.90347       61.64104
N         28.36503       96.08432       64.68974
C         28.13149       95.57179       66.03439
C         29.03877       94.39196       66.37677
O         29.71037       94.48813       67.39242
C         26.63389       95.27283       66.27040
C         26.33812       94.96321       67.71955
C         26.57213       95.93009       68.71639
C         25.81245       93.71413       68.08907
C         26.29015       95.64835       70.05507
C         25.53128       93.43711       69.43089
C         25.77019       94.40281       70.41259
H         27.57753       96.11149       64.02179
H         28.37439       96.40247       66.73462
H         26.28511       94.45157       65.62337
H         26.03768       96.16968       65.99341
H         26.96704       96.90522       68.46099
H         25.62073       92.95515       67.34105
H         26.47257       96.39805       70.81445
H         25.12633       92.47342       69.70991
H         25.55044       94.18760       71.45006
N         29.15686       93.26736       65.59476
C         30.08628       92.17376       65.88131
C         31.48886       92.66335       66.18396
O         32.11550       92.20804       67.13060
C         30.12085       91.38473       64.55895
C         28.71885       91.57185       64.04446
C         28.48219       93.05047       64.32857
H         29.68026       91.54827       66.70664
H         30.77901       91.89343       63.81607
H         30.46687       90.33385       64.65669
H         28.55511       91.27538       62.98631
H         28.04367       90.97358       64.69731
H         28.95328       93.70226       63.55928
H         27.39226       93.20819       64.34950
N         32.02594       93.61447       65.37968
C         33.38085       94.13583       65.46867
C         33.61019       94.80785       66.81276
O         34.55725       94.45685       67.50162
C         33.63241       95.11170       64.29234
C         33.41215       94.41403       62.92516
C         33.61775       95.31657       61.75178
O         34.00967       96.59354       61.90644
O         33.39549       94.88794       60.63339
H         31.40651       93.98955       64.64928
H         34.10645       93.29949       65.35168
H         34.67729       95.48885       64.34621
H         32.94335       95.97900       64.37309
H         32.37668       94.04015       62.82290
H         34.08386       93.53801       62.83280
N         32.75328       95.76207       67.26438
C         32.89793       96.42147       68.54169
H         32.04754       97.12174       68.69762
H         32.88810       95.67217       69.36085
H         33.84340       97.00095       68.56491
H         31.94526       96.01310       66.69506
Ca        32.23312       96.95015       59.15557
O         35.67295       99.10357       58.53660
H         35.90218       99.82343       59.17382
H         36.51024       98.95662       58.03066
O         36.23520       98.90513       61.88816
H         35.54712       98.52176       61.29114
H         36.82362       98.13892       62.10113

Ca 1.0



