%chk=holoCaM.loop3.water2.frame273.chk
%nprocshared=20
%mem=10GB
%nosave
#b3lyp/svp scf=(tight,noincore,xqc) Test 
#IOP(5/87=12) Density=Current Pop=(MK,readradii) iop(6/33=2) iop(6/42=6)

holoCaM.loop3.water2.frame273 

   0  1 
C         46.10143       78.69938       81.09649
C         46.59542       78.08264       79.82331
O         47.54486       77.31208       79.85404
H         45.03831       78.42365       81.25662
H         46.70131       78.35333       81.96435
H         46.18336       79.80479       81.02323
N         45.98428       78.39080       78.64633
C         46.41760       77.86076       77.35279
C         47.83954       78.37301       77.05451
O         48.28108       79.27174       77.75940
C         45.34834       78.29355       76.29843
C         45.35097       77.59069       74.97141
O         44.49425       77.84606       74.14147
O         46.26693       76.65825       74.71410
H         45.17154       79.02669       78.68497
H         46.42041       76.75146       77.44031
H         45.40537       79.39288       76.15267
H         44.34890       78.05613       76.72492
N         48.62849       77.86013       76.06028
C         49.97641       78.35238       75.78240
C         49.99141       79.17977       74.49808
O         50.91257       79.96652       74.33088
C         50.96648       77.16565       75.81807
C         52.45295       77.54977       75.79528
C         53.33038       76.29460       75.96536
C         54.82041       76.65100       76.06141
N         55.63490       75.45256       76.27176
H         48.29748       77.08425       75.48441
H         50.27296       79.05748       76.58778
H         50.75051       76.47574       74.98246
H         50.78380       76.61638       76.76863
H         52.65086       78.24075       76.64293
H         52.70915       78.06051       74.84258
H         53.16783       75.60326       75.10922
H         53.03773       75.76987       76.90185
H         54.97673       77.34649       76.91599
H         55.14583       77.16039       75.12787
H         55.52585       74.79389       75.46683
H         56.64035       75.72972       76.34893
H         55.35169       74.97418       77.15824
N         48.97367       79.11238       73.58349
C         48.81809       80.04443       72.46571
C         47.40790       80.65131       72.39611
O         47.17670       81.45810       71.50554
C         49.21440       79.38648       71.12625
C         48.42170       78.17786       70.71037
O         47.46362       77.65666       71.49567
O         48.66605       77.64937       69.63824
H         48.26788       78.37377       73.68401
H         49.51986       80.89861       72.59081
H         50.28379       79.09070       71.18221
H         49.12144       80.15379       70.32549
N         46.42112       80.34429       73.29375
C         45.09314       80.94473       73.25467
C         44.24508       80.55946       72.05205
O         43.18721       81.15498       71.90137
H         46.62151       79.71703       74.07874
H         45.21469       82.04931       73.27405
H         44.52275       80.65870       74.16514
N         44.61635       79.59868       71.15180
C         43.85505       79.33315       69.92829
C         42.44382       78.78790       70.16218
O         41.70052       78.68690       69.19606
C         44.64569       78.41556       68.96546
C         44.65053       76.95578       69.35969
N         44.17702       76.02044       68.50074
O         45.08488       76.61271       70.44790
H         45.50095       79.10079       71.29739
H         43.76464       80.31484       69.41197
H         45.69083       78.78682       68.88580
H         44.19271       78.50388       67.95456
H         43.81613       76.28642       67.57285
H         44.17691       75.02254       68.75130
N         42.00556       78.41726       71.40028
C         40.65332       77.96098       71.68089
C         40.62127       76.58816       72.31618
O         39.57635       76.23271       72.84404
H         42.63972       78.48032       72.20770
H         39.99640       77.96140       70.78382
H         40.22108       78.68052       72.40899
N         41.69635       75.74478       72.28370
C         41.70938       74.43885       72.94349
C         42.95238       74.31774       73.81555
O         43.79533       75.19745       73.74530
C         41.71968       73.29651       71.90272
C         40.59163       73.37091       70.89843
C         40.61378       74.32920       69.86702
C         39.52423       72.46029       70.95886
C         39.58605       74.37787       68.92171
C         38.49239       72.51630       70.01643
C         38.52145       73.47489       68.99307
O         37.53784       73.53403       68.07281
H         42.53539       76.02252       71.75208
H         40.80405       74.32217       73.57910
H         41.65677       72.33889       72.46383
H         42.67229       73.28047       71.33546
H         41.43403       75.03003       69.77951
H         39.48575       71.71052       71.73886
H         39.62097       75.11551       68.12935
H         37.67323       71.81157       70.08056
H         36.78558       72.92522       68.08373
N         43.15715       73.24975       74.64494
C         44.42681       73.02927       75.34430
C         44.92315       71.62830       75.02028
O         44.27859       70.66396       75.41134
C         44.30801       73.25901       76.88073
C         43.81590       74.70520       77.15623
C         45.67668       73.00615       77.55482
C         43.71736       75.07345       78.63878
H         42.40396       72.55370       74.75854
H         45.18437       73.75768       74.98570
H         43.57114       72.54242       77.30687
H         42.80497       74.82995       76.71250
H         44.49861       75.43046       76.66875
H         45.61009       73.10203       78.65638
H         46.02697       71.97252       77.36716
H         46.44217       73.71533       77.17160
H         43.30838       76.10130       78.73530
H         43.04922       74.36691       79.17356
H         44.71759       75.07899       79.11907
N         46.05954       71.44289       74.28924
C         46.57244       70.11739       73.94672
C         47.15124       69.39798       75.15994
O         47.25895       69.98184       76.22827
C         47.66053       70.23235       72.86207
O         47.11504       70.78236       71.69179
H         46.54462       72.27502       73.92370
H         45.73828       69.51354       73.52481
H         48.07003       69.23477       72.60073
H         48.51395       70.84267       73.24187
H         47.54734       71.66191       71.54332
N         47.56063       68.10202       75.04042
C         48.20219       67.34176       76.11041
C         49.54274       67.94829       76.46662
O         49.80329       68.16876       77.64009
C         48.41423       65.88899       75.67470
H         47.41098       67.63219       74.13424
H         47.54166       67.31629       77.00642
H         49.06628       65.82990       74.77762
H         48.88419       65.31184       76.50043
H         47.43425       65.42283       75.43873
N         50.44087       68.25250       75.48670
C         51.72466       68.89689       75.74027
C         51.52205       70.23609       76.42136
O         52.10919       70.47015       77.46857
C         52.47956       69.10614       74.41899
H         50.18021       68.04588       74.50954
H         52.35208       68.24053       76.38369
H         51.90040       69.75204       73.72389
H         53.46447       69.58414       74.60962
H         52.65648       68.12791       73.92365
N         50.68446       71.16174       75.87478
C         50.46341       72.48858       76.44617
C         49.83142       72.45650       77.83692
O         49.79148       73.50132       78.47231
C         49.57202       73.32143       75.50296
C         50.25929       73.58706       74.15006
C         49.34873       74.37617       73.26656
O         48.24050       73.82424       72.74553
O         49.58403       75.55122       73.03808
H         50.20185       70.90885       75.00027
H         51.45331       72.98943       76.54239
H         49.35654       74.30810       75.97335
H         48.60358       72.79161       75.35842
H         50.54749       72.65929       73.61658
H         51.18134       74.17220       74.35375
N         49.31377       71.31607       78.37292
C         48.74790       71.22831       79.70353
H         47.68372       70.92135       79.63191
H         49.30201       70.45865       80.28259
H         48.80693       72.18850       80.25636
H         49.30091       70.46008       77.81590
Ca        46.48756       75.13081       73.11128
O         47.70458       74.81213       70.07841
H         47.56236       75.06775       69.13313
H         48.40033       74.10862       70.04499
O         45.27185       73.21158       71.24180
H         44.99761       72.28128       71.04727
H         44.96893       73.72525       70.45383

Ca 1.0



