%chk=holoCaM.loop1.water2.frame241.chk
%nprocshared=20
%mem=10GB
%nosave
#b3lyp/svp scf=(tight,noincore,xqc) Test 
#IOP(5/87=12) Density=Current Pop=(MK,readradii) iop(6/33=2) iop(6/42=6)

holoCaM.loop1.water2.frame241 

   0  1 
C         55.45975      100.34744       65.87186
C         55.20907      101.81770       65.77218
O         56.15038      102.58956       65.87818
H         56.53598      100.14681       66.06089
H         54.85727       99.92246       66.69986
H         55.17019       99.86363       64.91500
N         53.95123      102.27791       65.52757
C         53.66533      103.68995       65.33017
C         53.87881      104.47372       66.63000
O         53.05951      104.39713       67.53437
C         52.23232      103.85307       64.79089
C         51.91030      105.22819       64.30324
O         52.84456      106.19383       64.23970
O         50.78226      105.45737       63.91308
H         53.19444      101.58674       65.40564
H         54.36016      104.03977       64.53487
H         51.50936      103.55920       65.58219
H         52.08748      103.17490       63.92088
N         55.01836      105.19405       66.79894
C         55.37592      105.95903       67.99290
C         54.52750      107.21698       68.11951
O         53.92981      107.43855       69.16257
C         56.87887      106.34240       67.90759
C         57.76300      105.08378       68.01511
C         59.24428      105.36454       67.74127
C         60.06522      104.07924       67.93815
N         61.46724      104.28031       67.57779
H         55.71245      105.14026       66.04615
H         55.25059      105.33526       68.90635
H         57.15558      107.02732       68.73904
H         57.07257      106.87044       66.94684
H         57.44002      104.32098       67.27961
H         57.63807      104.65604       69.03410
H         59.62369      106.15358       68.42544
H         59.35446      105.71763       66.69237
H         59.64831      103.26139       67.30816
H         59.99711      103.76584       69.00436
H         61.99724      103.40002       67.77350
H         61.54290      104.49794       66.55753
H         61.88045      105.05897       68.13961
N         54.46153      108.09578       67.08375
C         53.82073      109.41699       67.14086
C         52.37203      109.45091       66.61688
O         51.76572      110.51206       66.67009
C         54.71719      110.46530       66.43038
C         54.93007      110.17930       64.96384
O         55.54972      110.96971       64.27285
O         54.44526      109.03923       64.43202
H         54.97540      107.81854       66.24074
H         53.75266      109.73688       68.20467
H         55.71019      110.50672       66.92991
H         54.24454      111.46648       66.53426
N         51.72616      108.33258       66.18167
C         50.29436      108.27363       65.88477
C         49.79577      109.03814       64.66117
O         48.91173      109.86816       64.81616
H         52.23700      107.44227       66.18778
H         49.73802      108.61553       66.78551
H         50.01812      107.21102       65.72545
N         50.25625      108.75845       63.40767
C         49.70083      109.32818       62.16558
C         49.36834      108.24938       61.12102
O         49.05877      108.60345       59.99141
C         50.64129      110.41110       61.59242
C         52.07591      110.02052       61.65321
O         52.53853      108.91145       61.05941
O         52.83008      110.66780       62.36306
H         51.04350      108.09803       63.32351
H         48.74358      109.86364       62.35246
H         50.53028      111.31608       62.23051
H         50.34588      110.70248       60.56224
N         49.32880      106.92461       61.43841
C         48.95444      105.86745       60.50718
C         50.01916      105.49040       59.48955
O         49.76961      104.54724       58.75020
H         49.46646      106.64879       62.41316
H         47.99857      106.12843       60.00154
H         48.77038      104.94473       61.10007
N         51.21780      106.13683       59.38461
C         52.27654      105.72869       58.45726
C         53.59075      105.47111       59.19550
O         53.66619      105.66767       60.40269
C         52.44846      106.77582       57.32346
C         51.24709      106.79201       56.36613
O         52.70163      108.05998       57.83501
H         51.39902      106.95150       59.98369
H         52.01492      104.76317       57.96905
H         53.31378      106.48909       56.69013
H         51.84718      108.42940       58.18025
H         51.43420      107.51604       55.54443
H         51.11005      105.78577       55.91338
H         50.31373      107.07806       56.89343
N         54.66215      104.97487       58.50953
C         55.95099      104.60857       59.09415
C         57.07719      105.38292       58.40228
O         57.16602      105.35952       57.18159
C         56.14655      103.06667       58.94364
C         55.07855      102.25527       59.73545
C         57.56309      102.60082       59.33045
C         55.15803      102.37507       61.26714
H         54.54634      104.78755       57.50124
H         55.98470      104.84268       60.17650
H         56.01862      102.81725       57.86660
H         55.19268      101.17897       59.48108
H         54.06225      102.56254       59.40997
H         58.32869      103.08449       58.68999
H         57.79191      102.84076       60.38391
H         57.65868      101.50394       59.18441
H         56.12696      101.99433       61.65045
H         55.01381      103.41868       61.61034
H         54.35933      101.75513       61.72644
N         58.02402      106.02174       59.14993
C         59.21078      106.70614       58.63160
C         60.45181      105.92014       59.03523
O         60.30228      104.85482       59.60398
C         59.26669      108.16417       59.16234
C         58.11249      109.00796       58.61282
O         59.31229      108.19593       60.57044
H         57.95044      105.95430       60.17050
H         59.20023      106.74120       57.52000
H         60.18559      108.66346       58.79430
H         58.38810      108.10532       60.91895
H         58.17872      110.04678       58.99941
H         58.15440      109.04121       57.50380
H         57.14932      108.56411       58.91053
N         61.71170      106.35480       58.75827
C         62.91420      105.57379       59.06912
C         63.01977      105.18981       60.54106
O         63.18177      104.00942       60.81668
C         64.21433      106.29019       58.62269
C         64.30517      106.44372       57.09672
O         64.38869      107.52419       59.27727
H         61.81549      107.26089       58.28119
H         62.86778      104.62095       58.49306
H         65.07112      105.64003       58.90817
H         63.79545      108.19330       58.84831
H         65.28049      106.89900       56.82503
H         64.23992      105.44502       56.61324
H         63.49138      107.08373       56.69946
N         62.94172      106.11831       61.53634
C         63.09374      105.78004       62.95486
C         62.13998      104.67720       63.37290
O         62.58983      103.68875       63.93706
C         62.88683      107.02011       63.85329
C         64.02672      108.03696       63.68298
C         63.88253      109.21163       64.66184
C         65.06456      110.19696       64.59727
N         66.33242      109.57374       64.99032
H         62.75235      107.09620       61.27201
H         64.12587      105.40355       63.13702
H         62.90383      106.68437       64.91506
H         61.89728      107.48914       63.65512
H         64.05964      108.42701       62.64348
H         64.97306      107.49956       63.89357
H         63.80232      108.82808       65.70249
H         62.94638      109.76302       64.42360
H         64.84899      111.03270       65.29934
H         65.15621      110.62418       63.57438
H         66.23813      109.11632       65.92647
H         66.64036      108.87267       64.28020
H         67.07145      110.31036       65.05039
N         60.81405      104.76757       63.09825
C         59.84036      103.73846       63.46176
C         60.24146      102.39176       62.86299
O         60.45070      101.44844       63.61308
C         58.43052      104.18214       63.00372
C         57.97113      105.44739       63.76173
C         56.70362      106.02938       63.20433
O         56.66687      106.44296       62.06171
O         55.62066      106.17843       63.97679
H         60.49907      105.60236       62.58124
H         59.81987      103.62406       64.56926
H         57.69059      103.37188       63.18495
H         58.46817      104.39053       61.91520
H         58.73223      106.25003       63.69994
H         57.83722      105.18953       64.83285
N         60.41350      102.24296       61.52387
C         60.86891      101.01493       60.90961
H         61.87163      100.74237       61.30331
H         60.14885      100.19488       61.10655
H         60.95693      101.15653       59.80952
H         60.23804      103.03899       60.91512
Ca        54.21205      108.24549       62.35624
O         56.66166      110.09904       61.79790
H         55.71646      110.39227       61.80314
H         57.07995      110.65804       61.09803
O         54.96955      108.90782       59.77749
H         54.62139      108.05486       59.42097
H         54.71819      109.59333       59.11134

Ca 1.0



