%chk=holoCaM-CaMKII.loop2.water1.frame103.chk
%nprocshared=20
%mem=10GB
%nosave
#b3lyp/svp scf=(tight,noincore,xqc) Test 
#IOP(5/87=12) Density=Current Pop=(MK,readradii) iop(6/33=2) iop(6/42=6)

holoCaM-CaMKII.loop2.water1.frame103 

   -2  1 
C         16.36980       44.34154       34.59966
C         16.39912       43.62151       33.28350
O         16.91416       44.15027       32.30893
H         16.85266       45.33748       34.52365
H         15.31672       44.47286       34.92808
H         16.90825       43.73773       35.36153
N         15.86007       42.37819       33.19950
C         15.85090       41.57175       31.98481
C         15.01100       42.25156       30.90893
O         13.87533       42.60722       31.19349
C         15.29064       40.17418       32.33549
C         15.46561       39.13941       31.26697
O         16.02321       39.39907       30.21635
O         15.04021       37.88615       31.50004
H         15.45350       41.97924       34.06142
H         16.90157       41.43310       31.64302
H         14.21487       40.25435       32.60363
H         15.84371       39.78392       33.21712
N         15.49388       42.43989       29.64435
C         14.73493       43.11202       28.59128
C         14.16723       42.08957       27.62779
O         12.95144       41.99682       27.52434
C         15.61649       44.14649       27.88301
H         16.41852       42.05147       29.40664
H         13.87259       43.66168       29.03066
H         15.98097       44.89823       28.61490
H         16.49923       43.66525       27.41111
H         15.03666       44.67185       27.09441
N         14.97750       41.25517       26.91706
C         14.45779       40.18069       26.06343
C         13.70314       39.10321       26.85148
O         13.11794       38.23361       26.22069
C         15.60342       39.55040       25.22965
C         16.73915       39.00947       26.06295
O         16.64432       38.99314       27.40582
O         17.77516       38.65623       25.52333
H         15.99595       41.39499       26.99133
H         13.74221       40.63424       25.34138
H         16.02068       40.35991       24.59139
H         15.21467       38.75572       24.55626
N         13.65885       39.09367       28.21860
C         12.89570       38.13426       29.00130
C         13.37112       36.69251       28.91882
O         12.71373       35.85758       29.52447
H         14.13838       39.82780       28.74927
H         11.83407       38.18519       28.67635
H         12.92460       38.43679       30.06966
N         14.45400       36.29732       28.18342
C         14.77227       34.88280       27.98146
C         15.22765       34.14738       29.23860
O         15.21522       32.92453       29.22041
C         15.78804       34.68784       26.83817
C         17.18508       35.14464       27.18076
N         18.22125       34.27799       27.12175
O         17.38962       36.30390       27.49921
H         14.99288       37.00244       27.66800
H         13.82555       34.41047       27.63437
H         15.43331       35.24297       25.94255
H         15.81386       33.60965       26.57115
H         18.07865       33.29408       26.85361
H         19.17587       34.59580       27.32992
N         15.66992       34.80865       30.34648
C         16.04754       34.13959       31.58472
C         17.50172       34.33371       31.96784
O         17.85321       33.91483       33.06203
H         15.73397       35.83418       30.32573
H         15.85474       33.04583       31.54307
H         15.41130       34.55743       32.39426
N         18.41249       34.92179       31.13609
C         19.81668       35.12920       31.50013
C         20.14985       36.61634       31.43502
O         19.25978       37.41211       31.16213
C         20.74187       34.27328       30.59991
C         20.40292       32.78013       30.70125
O         20.64265       34.69153       29.26877
H         18.11574       35.22838       30.19780
H         20.00657       34.80276       32.54671
H         21.78986       34.40517       30.95251
H         21.44775       34.35088       28.79738
H         19.37244       32.58190       30.33719
H         21.11037       32.18961       30.08116
H         20.48856       32.43512       31.75369
N         21.41168       37.06872       31.69808
C         21.76169       38.48591       31.74757
C         22.76429       38.80493       30.64334
O         23.80300       38.16074       30.58178
C         22.35824       38.84814       33.14589
C         21.47815       38.31609       34.30749
C         22.53514       40.37581       33.25488
C         22.07883       38.58008       35.69311
H         22.15724       36.38798       31.90641
H         20.85255       39.11164       31.60598
H         23.35434       38.35952       33.23877
H         21.38823       37.21278       34.21286
H         20.45851       38.75467       34.25696
H         21.55030       40.88864       33.19344
H         23.03690       40.66988       34.19644
H         23.17726       40.74713       32.44310
H         23.10423       38.15605       35.75733
H         22.11526       39.66377       35.92312
H         21.44874       38.09929       36.46971
N         22.54196       39.83540       29.77457
C         23.52978       40.28920       28.79577
C         24.37254       41.39850       29.40006
O         24.11188       41.80172       30.52074
C         22.82831       40.81587       27.52495
C         22.00678       39.77227       26.83399
O         22.54040       38.77192       26.38246
O         20.68269       39.95595       26.66983
H         21.70903       40.41880       29.91944
H         24.21579       39.45516       28.52845
H         23.58129       41.17318       26.79316
H         22.17526       41.67456       27.79979
N         25.43253       41.92750       28.72838
C         26.26119       42.98012       29.30390
C         25.48111       44.28379       29.51654
O         25.52345       44.78144       30.63323
C         27.53658       43.22522       28.47139
C         28.52385       44.07416       29.24433
C         28.88461       45.35488       28.79575
C         29.09558       43.57986       30.43421
C         29.79239       46.12801       29.52984
C         30.00241       44.35368       31.16120
C         30.34975       45.62808       30.71073
H         25.68102       41.54006       27.80496
H         26.60991       42.60270       30.29080
H         27.27421       43.68844       27.50106
H         28.03649       42.25696       28.25091
H         28.45898       45.75801       27.88593
H         28.84386       42.59219       30.80037
H         30.06409       47.11661       29.18462
H         30.43514       43.96356       32.07406
H         31.05168       46.22648       31.27710
N         24.72727       44.89839       28.53896
C         24.00043       46.15360       28.73620
C         22.78636       46.02733       29.65471
O         22.09741       47.02099       29.83968
C         23.60117       46.55824       27.31240
C         23.35609       45.21732       26.66626
C         24.54101       44.40880       27.18466
H         24.66282       46.94722       29.14662
H         22.77203       47.29435       27.23744
H         24.49487       46.99221       26.80767
H         22.41995       44.80117       27.10619
H         23.25470       45.22403       25.56049
H         24.25435       43.34698       27.12381
H         25.45908       44.61043       26.59550
N         22.49443       44.86871       30.30532
C         21.42820       44.71982       31.28204
C         22.06137       44.80645       32.65512
O         21.66855       45.67007       33.42721
C         20.67626       43.39570       31.01978
C         20.00800       43.45713       29.63541
C         19.35294       42.18907       29.18202
O         18.80820       42.17733       28.08981
O         19.36546       41.05737       29.91069
H         23.09343       44.05068       30.16912
H         20.69232       45.55338       31.20925
H         19.89795       43.23081       31.79716
H         21.39598       42.54992       31.05966
H         20.76919       43.69964       28.86456
H         19.24363       44.26466       29.64588
N         23.11310       44.00822       32.99220
C         23.86305       44.14763       34.22323
H         24.91751       44.39714       33.97306
H         23.46765       44.95585       34.87322
H         23.84430       43.19122       34.78242
H         23.44263       43.29945       32.32725
Ca        18.37573       39.38069       28.78334
O         20.51497       37.07896       27.63196
H         19.77769       37.00033       28.28588
H         21.31794       37.23005       28.19095

Ca 1.0



