%chk=holoCaM-CaMKII.loop2.water2.frame330.chk
%nprocshared=20
%mem=10GB
%nosave
#b3lyp/svp scf=(tight,noincore,xqc) Test 
#IOP(5/87=12) Density=Current Pop=(MK,readradii) iop(6/33=2) iop(6/42=6)

holoCaM-CaMKII.loop2.water2.frame330 

   -2  1 
C         43.94827       70.08153       54.01370
C         43.48624       70.95289       52.88233
O         43.40642       70.48816       51.75673
H         44.85822       70.51603       54.47733
H         43.14657       70.02060       54.78122
H         44.17574       69.05397       53.65915
N         43.14409       72.24468       53.12680
C         42.60177       73.14651       52.11595
C         43.59748       73.40128       50.98854
O         44.70869       73.82590       51.27410
C         42.23115       74.48844       52.78560
C         41.46549       75.40928       51.88341
O         41.09859       75.04000       50.78103
O         41.13690       76.64087       52.31545
H         43.23275       72.58441       54.09802
H         41.66785       72.69336       51.71613
H         43.15973       74.99455       53.12814
H         41.58850       74.30265       53.67256
N         43.24782       73.19863       49.68076
C         44.15476       73.43735       48.55832
C         43.66389       74.50995       47.57390
O         44.42549       74.82928       46.67123
C         44.36655       72.11253       47.81436
H         42.30310       72.84820       49.47371
H         45.14212       73.77949       48.93618
H         44.76400       71.34274       48.51020
H         43.40265       71.74477       47.39816
H         45.09030       72.23587       46.98082
N         42.41660       75.07269       47.63563
C         41.90154       76.01182       46.62134
C         41.13208       77.21056       47.19789
O         40.67403       78.02836       46.41171
C         41.02251       75.23129       45.61317
C         39.83171       74.56352       46.24066
O         39.54880       74.78207       47.53420
O         39.18056       73.75053       45.60494
H         41.77079       74.72044       48.34894
H         42.74706       76.42698       46.03011
H         41.66442       74.43428       45.17605
H         40.68447       75.88682       44.78243
N         40.94735       77.39391       48.53754
C         40.24152       78.53162       49.11737
C         38.73550       78.59123       48.87544
O         38.13751       79.55174       49.33951
H         41.38561       76.74358       49.19360
H         40.70973       79.46705       48.74238
H         40.38077       78.50597       50.22018
N         38.04279       77.64202       48.17863
C         36.60621       77.74644       47.90374
C         35.71870       77.73361       49.15159
O         34.55464       78.08868       49.02900
C         36.14595       76.66258       46.89655
C         36.30340       75.23209       47.36323
N         35.91978       74.21823       46.55549
O         36.78005       74.97760       48.45756
H         38.55685       76.85721       47.77711
H         36.45303       78.73038       47.40730
H         36.73383       76.77899       45.96050
H         35.07527       76.83181       46.65074
H         35.51995       74.40691       45.62530
H         36.02163       73.24106       46.86016
N         36.17916       77.32692       50.36861
C         35.40098       77.39599       51.59918
C         35.04600       76.04196       52.18653
O         34.57234       76.02303       53.31375
H         37.13682       76.97003       50.44003
H         34.44806       77.95154       51.46046
H         36.00522       77.96609       52.33703
N         35.15244       74.88351       51.47046
C         34.70941       73.58001       51.97089
C         35.80201       72.52237       51.83308
O         36.86185       72.80680       51.29566
C         33.43497       73.14859       51.19422
C         32.27158       74.11266       51.44731
O         33.68724       73.09548       49.81258
H         35.47645       74.93152       50.49775
H         34.44822       73.63941       53.05035
H         33.07702       72.15627       51.55053
H         34.12563       72.22419       49.62962
H         32.51484       75.13691       51.09482
H         31.36725       73.76283       50.90541
H         32.03468       74.15088       52.53254
N         35.57122       71.24602       52.26165
C         36.49520       70.13435       52.05935
C         36.05758       69.36833       50.82629
O         34.89026       69.02384       50.70284
C         36.57285       69.21194       53.31943
C         37.24994       69.97351       54.48893
C         37.34465       67.90904       53.00043
C         37.35990       69.16687       55.78746
H         34.64735       71.02151       52.65977
H         37.52260       70.50706       51.86673
H         35.54103       68.91712       53.61423
H         36.66743       70.89303       54.70907
H         38.27681       70.27398       54.18903
H         38.38741       68.13068       52.69113
H         37.35630       67.21712       53.86460
H         36.84102       67.34093       52.19208
H         36.35579       68.84438       56.13232
H         38.01233       68.27818       55.66364
H         37.82620       69.79671       56.57381
N         36.99388       69.01060       49.90168
C         36.71552       68.24290       48.69727
C         37.28194       66.84450       48.84782
O         37.88255       66.54747       49.86799
C         37.34206       68.95339       47.48109
C         36.75855       70.32127       47.27095
O         36.85915       71.25776       48.23254
O         36.20031       70.59413       46.22066
H         37.97905       69.24300       50.08509
H         35.61915       68.13440       48.54516
H         37.17719       68.34966       46.56351
H         38.44038       69.05198       47.63335
N         37.07342       65.90413       47.88662
C         37.51617       64.52244       48.02974
C         39.04115       64.40022       48.09777
O         39.50110       63.80943       49.06476
C         36.88231       63.63118       46.93787
C         37.24836       62.17443       47.09302
C         36.91322       61.46896       48.26361
C         37.92110       61.50316       46.05793
C         37.25059       60.11923       48.39462
C         38.25309       60.15223       46.19233
C         37.91907       59.46098       47.35968
H         36.52284       66.16629       47.05458
H         37.10180       64.14134       48.99003
H         37.15525       63.98172       45.92952
H         35.77622       63.71909       47.00806
H         36.38976       61.95821       49.07480
H         38.18714       62.02331       45.14600
H         36.99093       59.58318       49.29831
H         38.76861       59.64112       45.38996
H         38.17640       58.41503       47.46161
N         39.90250       64.91817       47.15952
C         41.36061       64.81969       47.24586
C         41.90710       65.22252       48.60213
O         42.74664       64.52865       49.15732
C         41.85002       65.82639       46.19112
C         40.77181       65.72735       45.14505
C         39.51151       65.70271       46.00264
H         41.67396       63.78643       46.97641
H         41.79118       66.86673       46.58757
H         42.88730       65.65115       45.83355
H         40.78519       66.52062       44.36752
H         40.88027       64.73530       44.64951
H         39.22032       66.71947       46.34678
H         38.71331       65.26005       45.38847
N         41.43632       66.35306       49.18810
C         41.89698       66.89200       50.46220
C         41.66220       65.89303       51.57408
O         42.60259       65.54002       52.27156
C         41.14520       68.20156       50.78016
C         41.35749       69.26198       49.68774
C         40.51672       70.47359       49.88770
O         40.42574       71.32357       48.86418
O         39.86302       70.65997       50.90000
H         40.68355       66.84207       48.68610
H         42.98277       67.13069       50.39530
H         41.48255       68.60785       51.75848
H         40.05747       67.98448       50.84898
H         41.04434       68.87524       48.70162
H         42.42513       69.55074       49.59497
N         40.41905       65.38456       51.78465
C         40.12770       64.43225       52.82890
H         39.05605       64.14157       52.77849
H         40.74962       63.52237       52.69675
H         40.32728       64.88915       53.82032
H         39.64970       65.67193       51.17120
Ca        39.05362       73.05476       48.79524
O         38.30961       75.09678       51.69544
H         38.76831       75.95337       51.51830
H         37.86890       75.23143       52.57089
O         39.15300       72.67010       53.03178
H         39.77881       71.93639       53.25166
H         39.20046       73.27997       53.80942

Ca 1.0



