%chk=holoCaM-CaMKII.loop4.water2.frame89.chk
%nprocshared=20
%mem=10GB
%nosave
#b3lyp/svp scf=(tight,noincore,xqc) Test 
#IOP(5/87=12) Density=Current Pop=(MK,readradii) iop(6/33=2) iop(6/42=6)

holoCaM-CaMKII.loop4.water2.frame89 

   -3  1 
C         10.62462       45.29426       51.34948
C         11.02093       44.95280       49.94650
O         11.86191       45.64006       49.38455
H          9.85992       44.58801       51.73698
H         11.52010       45.23399       52.00321
H         10.21154       46.32264       51.38028
N         10.47912       43.87259       49.32290
C         10.89334       43.45759       47.99390
C         10.45576       44.47431       46.95807
O          9.26934       44.76782       46.89085
C         10.30931       42.07528       47.66911
C         10.99677       41.42984       46.51043
O         12.02713       42.02411       45.88014
O         10.69709       40.28741       46.21388
H          9.79574       43.29388       49.83682
H         11.99787       43.34381       48.01674
H          9.21210       42.12576       47.50076
H         10.50238       41.40080       48.53248
N         11.35372       45.03107       46.09651
C         10.97642       46.02988       45.10709
C         10.72926       45.34396       43.77186
O          9.60261       45.37696       43.29560
C         12.05890       47.15177       45.00996
C         12.46684       47.74041       46.38720
C         11.62234       48.26330       44.03844
C         11.33654       48.39466       47.18110
H         12.33018       44.71061       46.11975
H         10.01926       46.50836       45.41524
H         12.99189       46.70819       44.59987
H         13.27000       48.49410       46.22967
H         12.90253       46.93355       47.01414
H         12.42040       49.03120       43.95017
H         11.44200       47.84886       43.02448
H         10.68831       48.75364       44.38227
H         10.90223       49.25134       46.62800
H         10.54221       47.65739       47.41584
H         11.74546       48.77645       48.14084
N         11.74021       44.72322       43.09674
C         11.55821       44.12536       41.77335
C         10.79734       42.79543       41.78486
O         10.55005       42.26990       40.70764
C         12.91064       44.00964       41.03502
C         13.92445       43.09818       41.67143
O         15.01744       42.96329       41.14624
O         13.65646       42.43861       42.81246
H         12.68748       44.76324       43.49832
H         10.96734       44.84262       41.15878
H         13.35480       45.02780       40.96946
H         12.72306       43.65881       39.99676
N         10.34906       42.21275       42.93591
C          9.49279       41.03479       42.94126
C         10.15898       39.71407       42.60098
O          9.42948       38.73365       42.53997
H         10.51594       42.67387       43.83917
H          8.64414       41.21253       42.24401
H          9.06021       40.90993       43.95691
N         11.50361       39.56840       42.39281
C         12.09107       38.26345       42.06916
C         11.93614       37.22522       43.19140
O         12.20279       36.05798       42.93775
C         13.54349       38.41336       41.55410
C         14.59769       38.84918       42.53609
O         15.72473       39.07559       42.13012
O         14.38454       38.87456       43.85618
H         12.11138       40.39676       42.42377
H         11.51969       37.87636       41.19421
H         13.51971       39.15414       40.72621
H         13.88705       37.44579       41.12602
N         11.46543       37.56312       44.43103
C         11.11118       36.60738       45.47170
C         11.88556       36.77400       46.76837
O         11.52713       36.11238       47.72897
H         11.28261       38.54904       44.64314
H         11.23254       35.55610       45.13115
H         10.03253       36.75824       45.69638
N         12.99051       37.57253       46.85930
C         13.82392       37.66581       48.06316
C         14.10387       39.12382       48.41761
O         13.61764       40.00667       47.73360
C         15.15468       36.93702       47.78931
C         14.94806       35.45151       47.46019
C         16.27276       34.77371       47.23061
N         16.56441       34.20974       46.03559
O         17.09374       34.73278       48.13516
H         13.31902       38.05953       46.01879
H         13.33488       37.17705       48.93362
H         15.80644       37.00142       48.68533
H         15.67698       37.42501       46.94053
H         14.31723       35.35642       46.55054
H         14.42505       34.94572       48.30066
H         15.88840       34.23394       45.25827
H         17.47408       33.74953       45.88480
N         14.92648       39.44215       49.46972
C         15.32887       40.81492       49.77160
C         16.84119       40.91965       49.62011
O         17.56047       40.30901       50.39687
C         14.89576       41.22413       51.20833
C         15.24365       42.69664       51.49274
C         13.39186       41.01114       51.42878
H         15.31369       38.68943       50.05410
H         14.84659       41.51537       49.05941
H         15.43329       40.58514       51.94454
H         14.70494       43.36762       50.78951
H         14.95874       42.96799       52.53120
H         16.33205       42.87609       51.39090
H         13.12658       39.94123       51.29550
H         13.11909       41.29403       52.46868
H         12.79636       41.62425       50.71961
N         17.39311       41.66599       48.61796
C         18.84075       41.81826       48.45400
C         19.41123       42.69817       49.56780
O         18.64470       43.28626       50.31607
C         19.12100       42.41007       47.04597
C         20.57679       42.55067       46.67472
N         21.40201       41.47798       46.65613
O         21.01191       43.64864       46.36365
H         16.76228       42.10737       47.93304
H         19.30001       40.80651       48.50164
H         18.62278       43.40083       46.96256
H         18.66311       41.73866       46.29105
H         21.05861       40.53964       46.90456
H         22.39403       41.58940       46.39761
N         20.75802       42.83177       49.74149
C         21.35777       43.71880       50.73833
C         20.99164       45.16428       50.45116
O         20.65867       45.88886       51.37725
C         22.89191       43.55519       50.75366
C         23.54679       44.42892       51.80342
C         23.22275       44.28245       53.16531
C         24.48812       45.40174       51.42753
C         23.82286       45.09923       54.12810
C         25.09057       46.21411       52.39326
C         24.75792       46.06634       53.74747
O         25.32914       46.84465       54.68875
H         21.38707       42.28059       49.14176
H         20.98188       43.43412       51.74555
H         23.29270       43.79389       49.74356
H         23.14148       42.49503       50.97627
H         22.50367       43.53987       53.48605
H         24.75661       45.53367       50.38699
H         23.56033       44.97960       55.17202
H         25.81453       46.95863       52.08739
H         25.98222       47.52404       54.46815
N         20.99990       45.63386       49.17283
C         20.55261       46.97172       48.79850
C         19.11498       47.18731       49.24461
O         18.85563       48.15449       49.94738
C         20.64890       47.17926       47.26833
C         22.09909       47.14605       46.75816
C         22.14714       47.36212       45.27203
O         22.62899       46.51003       44.54257
O         21.66833       48.50178       44.73679
H         21.29001       44.98522       48.43048
H         21.19890       47.73521       49.28758
H         20.22118       48.17613       47.01869
H         20.04847       46.40298       46.74330
H         22.57207       46.17038       46.99714
H         22.68672       47.94863       47.25335
N         18.12926       46.31294       48.88530
C         16.72706       46.49125       49.27139
C         16.51454       46.46364       50.78273
O         15.44176       46.85563       51.22093
C         15.83860       45.39798       48.64101
C         15.82209       45.45360       47.10499
C         15.00182       44.34513       46.50636
O         14.86479       44.28566       45.29616
O         14.42087       43.40960       47.28148
H         18.39393       45.50179       48.30766
H         16.39857       47.48807       48.90030
H         14.79011       45.52260       48.99422
H         16.20803       44.40522       48.98187
H         16.84802       45.36657       46.69412
H         15.39608       46.42980       46.78857
N         17.46647       45.99269       51.63486
C         17.32702       45.96696       53.07562
H         16.36847       46.40813       53.41801
H         17.38527       44.91701       53.43130
H         18.16052       46.54376       53.53010
H         18.33278       45.60911       51.25384
Ca        13.32448       40.49572       44.93499
O         16.90631       42.50710       44.01947
H         17.74434       42.23085       43.57102
H         16.61082       43.30763       43.51798
O         16.84149       39.87643       45.76927
H         16.25144       39.13452       45.49245
H         17.50079       39.94586       45.03436

Ca 1.0



