%chk=holoCaM.loop1.water2.frame239.chk
%nprocshared=20
%mem=10GB
%nosave
#b3lyp/svp scf=(tight,noincore,xqc) Test 
#IOP(5/87=12) Density=Current Pop=(MK,readradii) iop(6/33=2) iop(6/42=6)

holoCaM.loop1.water2.frame239 

   0  1 
C         65.45573       93.67542       65.90227
C         65.27866       94.92548       66.70455
O         66.26697       95.53525       67.08614
H         66.53335       93.44688       65.76012
H         64.97835       92.82839       66.43878
H         64.97566       93.80079       64.91010
N         64.02328       95.36388       67.00221
C         63.76010       96.54874       67.80993
C         64.35126       96.33506       69.18828
O         63.83999       95.52590       69.94939
C         62.23926       96.80219       67.83794
C         61.72170       97.91927       68.69554
O         62.31895       99.12489       68.79708
O         60.61971       97.77872       69.19548
H         63.22645       94.82212       66.63307
H         64.25736       97.40522       67.31544
H         61.74700       95.87181       68.19948
H         61.87705       96.97029       66.80189
N         65.51541       96.96003       69.51689
C         66.32086       96.59248       70.67467
C         65.99560       97.44919       71.89042
O         66.46570       97.11257       72.96784
C         67.81395       96.57966       70.24276
C         68.84362       95.88462       71.15126
C         68.41167       94.45539       71.53200
C         69.57584       93.55063       71.96735
N         70.35880       93.09463       70.81243
H         65.94978       97.52622       68.78164
H         66.05552       95.54729       70.93634
H         68.16466       97.60970       70.01985
H         67.85486       96.00957       69.28719
H         69.05591       96.46706       72.07380
H         69.78166       95.86237       70.55624
H         67.90224       93.94695       70.68524
H         67.68188       94.55114       72.36488
H         69.14394       92.64919       72.45510
H         70.22479       94.06518       72.70979
H         69.73895       92.56853       70.15193
H         70.80187       93.89235       70.30623
H         71.10902       92.44373       71.13758
N         65.17011       98.54269       71.80917
C         64.71167       99.29627       72.97891
C         63.17731       99.36468       73.07996
O         62.69092       99.95566       74.03391
C         65.36853      100.69261       73.03060
C         65.01222      101.64865       71.92707
O         65.54174      102.88670       71.94925
O         64.24840      101.33674       71.02778
H         64.84516       98.85690       70.88401
H         65.05550       98.78756       73.90625
H         66.47298      100.55961       73.03544
H         65.08769      101.17441       73.99262
N         62.35196       98.73777       72.18703
C         60.90268       98.65471       72.34852
C         60.15532       99.96038       72.13804
O         59.45094      100.39035       73.03929
H         62.75903       98.20078       71.40934
H         60.67513       98.22999       73.34947
H         60.50373       97.93639       71.60666
N         60.22696      100.61492       70.94505
C         59.48436      101.83156       70.60696
C         58.67453      101.69400       69.30510
O         58.08908      102.67795       68.87381
C         60.47036      103.01678       70.53902
C         61.55334      102.91772       69.50010
O         61.61247      101.97897       68.72293
O         62.47981      103.89149       69.43535
H         60.86349      100.23528       70.24198
H         58.76381      102.08426       71.41518
H         60.96257      103.10156       71.53162
H         59.90489      103.95658       70.35907
N         58.58055      100.50886       68.63512
C         57.86006      100.31851       67.38399
C         58.50431      101.05062       66.22757
O         57.80077      101.72053       65.49417
H         59.02049       99.67095       69.03086
H         56.78858      100.59707       67.49495
H         57.89865       99.23687       67.12843
N         59.83799      100.90125       65.98840
C         60.59791      101.46108       64.85400
C         62.04337      100.94766       64.87409
O         62.47444      100.35985       65.85071
C         60.64151      103.02819       64.79901
C         59.48800      103.72679       64.06479
O         60.83988      103.58592       66.07074
H         60.33079      100.29450       66.65936
H         60.16288      101.06385       63.91081
H         61.51028      103.31807       64.16830
H         60.01027      103.43443       66.59415
H         59.72342      104.80885       63.97112
H         59.38955      103.31082       63.03852
H         58.52140      103.67116       64.58385
N         62.83613      101.10469       63.77462
C         64.20681      100.60846       63.66955
C         65.12728      101.76505       63.28154
O         64.88765      102.40385       62.26637
C         64.24151       99.43990       62.63250
C         63.33937       98.24400       63.06194
C         65.67004       98.94421       62.34258
C         63.77165       97.52508       64.34719
H         62.42853      101.55160       62.93872
H         64.56369      100.19945       64.63684
H         63.83413       99.82297       61.67047
H         63.32782       97.49019       62.24500
H         62.29421       98.59551       63.19507
H         66.17013       98.57948       63.26119
H         65.64339       98.11870       61.59865
H         66.28300       99.75744       61.90796
H         63.06658       96.69469       64.56010
H         64.78513       97.08516       64.25141
H         63.75500       98.21041       65.21325
N         66.23482      102.05052       64.03072
C         67.23179      103.06182       63.67112
C         68.35149      102.41641       62.88042
O         68.29934      101.22744       62.62750
C         67.80484      103.77725       64.93020
C         66.76254      104.63381       65.64506
O         68.41234      102.85894       65.80666
H         66.45528      101.42254       64.81068
H         66.78118      103.82812       63.00277
H         68.58899      104.49985       64.62982
H         67.71712      102.49771       66.41445
H         65.94721      103.98927       65.99633
H         67.22409      105.14250       66.51854
H         66.35745      105.40511       64.95692
N         69.39116      103.16400       62.42350
C         70.48303      102.62790       61.61649
C         71.25684      101.55720       62.37316
O         71.41565      100.45985       61.85757
C         71.42962      103.77783       61.18911
C         72.52995      103.28818       60.24615
O         70.69219      104.76792       60.51430
H         69.38990      104.17074       62.63800
H         70.05422      102.18710       60.68830
H         71.92520      104.21152       62.09220
H         70.55074      105.52070       61.14683
H         73.17530      104.14230       59.95246
H         73.16621      102.52289       60.73718
H         72.07808      102.85121       59.32963
N         71.76757      101.82126       63.60739
C         72.56030      100.86977       64.38940
C         71.80743       99.57232       64.58831
O         72.39479       98.50964       64.44067
C         72.94587      101.47424       65.76198
C         73.85406      102.70715       65.59597
C         74.22830      103.33939       66.94262
C         75.00268      104.66094       66.77201
N         76.29290      104.48155       66.10323
H         71.55303      102.74306       64.01443
H         73.50667      100.63495       63.85398
H         73.49987      100.71269       66.35641
H         72.02484      101.74872       66.32389
H         73.33604      103.48129       64.99674
H         74.77277      102.39621       65.05540
H         74.82034      102.62290       67.55286
H         73.29230      103.57673       67.49430
H         75.17789      105.09662       67.78009
H         74.38264      105.38312       66.19449
H         76.78308      105.40438       66.06429
H         76.88520      103.80587       66.63764
H         76.16250      104.14825       65.12203
N         70.48636       99.59183       64.89570
C         69.69155       98.38629       65.09543
C         69.68969       97.54904       63.82184
O         70.09080       96.39466       63.87374
C         68.28585       98.76252       65.61753
C         68.44221       99.54685       66.94894
C         67.15400       99.84146       67.62852
O         66.14851      100.43589       66.98119
O         67.00650       99.54232       68.79984
H         70.03190      100.51333       64.96861
H         70.15371       97.77545       65.90294
H         67.70273       97.83097       65.79275
H         67.73942       99.38006       64.87162
H         68.93771      100.51523       66.77686
H         69.07371       98.96174       67.65188
N         69.34102       98.09212       62.62502
C         69.46779       97.37956       61.37141
H         70.52660       97.07494       61.21879
H         68.81498       96.48362       61.36416
H         69.18056       98.04496       60.52770
H         69.02964       99.06357       62.59015
Ca        64.19575       99.83304       67.83754
O         63.73187      103.61996       66.60564
H         63.75916      104.46960       67.11383
H         63.03027      103.08305       67.03941
O         66.07279      103.25957       68.60796
H         66.97767      103.65725       68.56082
H         66.06843      102.77007       69.46552

Ca 1.0



