%chk=holoCaM-CaMKII.loop2.water2.frame268.chk
%nprocshared=20
%mem=10GB
%nosave
#b3lyp/svp scf=(tight,noincore,xqc) Test 
#IOP(5/87=12) Density=Current Pop=(MK,readradii) iop(6/33=2) iop(6/42=6)

holoCaM-CaMKII.loop2.water2.frame268 

   -2  1 
C         46.15635       45.00413       36.59997
C         47.40921       45.83427       36.62969
O         48.21511       45.68493       37.53435
H         45.26346       45.66366       36.60756
H         46.14175       44.39644       35.66863
H         46.10736       44.31515       37.46917
N         47.64330       46.72008       35.62715
C         48.86604       47.50637       35.49050
C         49.05190       48.52047       36.61720
O         48.16769       49.33762       36.83279
C         48.82478       48.24615       34.14038
C         50.10998       48.95606       33.86690
O         50.13020       50.16726       33.71803
O         51.24740       48.24618       33.77590
H         46.92883       46.78798       34.88426
H         49.72908       46.80300       35.46166
H         47.97564       48.96485       34.13040
H         48.67115       47.51094       33.32103
N         50.21800       48.55407       37.33171
C         50.51524       49.53277       38.37822
C         51.77595       50.36660       38.09030
O         52.11060       51.19355       38.92776
C         50.68541       48.79048       39.70843
H         50.93698       47.84973       37.12068
H         49.66767       50.24238       38.49924
H         49.76344       48.21763       39.94453
H         51.54304       48.08615       39.65786
H         50.86306       49.51043       40.53668
N         52.52018       50.22792       36.94856
C         53.78203       50.96007       36.71656
C         54.27818       50.97687       35.25035
O         55.34280       51.53470       35.02048
C         54.88323       50.41514       37.66465
C         54.95857       48.92464       37.56586
O         54.68956       48.24071       38.54155
O         55.14756       48.32844       36.37857
H         52.20393       49.53760       36.26334
H         53.63082       52.03661       36.95203
H         54.62816       50.67594       38.71480
H         55.86948       50.87570       37.44431
N         53.54999       50.48997       34.20253
C         53.91719       50.63934       32.79862
C         55.09593       49.81638       32.30163
O         55.38551       49.92337       31.11807
H         52.62442       50.10295       34.36850
H         54.10311       51.71546       32.58990
H         53.04404       50.33030       32.18239
N         55.83006       48.98955       33.10033
C         56.99930       48.25179       32.61044
C         56.67370       47.06604       31.68387
O         57.60871       46.40315       31.25563
C         57.90437       47.80868       33.78599
C         57.33398       46.78024       34.72691
N         58.10108       46.30789       35.73488
O         56.19589       46.36443       34.58932
H         55.60623       48.94933       34.09924
H         57.63241       48.96654       32.03790
H         58.18185       48.70685       34.38060
H         58.84056       47.38792       33.35938
H         59.06528       46.64700       35.86476
H         57.73957       45.59352       36.37959
N         55.40096       46.74892       31.30188
C         55.07989       45.66108       30.38099
C         55.17494       44.25412       30.96085
O         54.88222       43.32169       30.22610
H         54.62220       47.34771       31.59832
H         55.71481       45.74872       29.47211
H         54.02313       45.78246       30.05892
N         55.54367       44.01084       32.25027
C         55.59965       42.67890       32.85919
C         54.68047       42.61030       34.07700
O         54.00201       43.58297       34.37708
C         57.06816       42.34425       33.23427
C         57.92656       42.17097       31.97967
O         57.62490       43.34927       34.04205
H         55.80139       44.80344       32.84448
H         55.24463       41.89346       32.15571
H         57.13326       41.36521       33.75815
H         57.25737       43.22309       34.95513
H         58.96448       41.90010       32.26763
H         57.51763       41.34733       31.35352
H         57.95196       43.10267       31.37792
N         54.63007       41.48063       34.84347
C         53.80362       41.34645       36.03716
C         54.70180       41.46527       37.25266
O         55.65952       40.71066       37.36100
C         53.05461       39.97428       36.05468
C         52.19411       39.77835       34.78248
C         52.18753       39.85354       37.32892
C         51.54053       38.39258       34.70387
H         55.24429       40.68767       34.60836
H         53.03923       42.15149       36.07461
H         53.81783       39.16383       36.07615
H         52.84749       39.87348       33.88952
H         51.40709       40.56114       34.72489
H         52.81135       39.94627       38.23672
H         51.40385       40.64111       37.34772
H         51.70401       38.86105       37.40930
H         50.79841       38.23938       35.51304
H         51.00048       38.28906       33.74028
H         52.31435       37.59696       34.76291
N         54.39984       42.34995       38.24615
C         55.13251       42.41570       39.50486
C         54.31856       41.70867       40.56916
O         53.20245       41.29708       40.28648
C         55.42996       43.87717       39.89325
C         56.24807       44.58379       38.85002
O         55.80764       44.73430       37.72227
O         57.46230       45.07630       39.16108
H         53.54488       42.91620       38.16247
H         56.09252       41.86021       39.41957
H         55.98623       43.89568       40.85495
H         54.47702       44.43359       40.03320
N         54.83635       41.44901       41.80041
C         54.12055       40.61301       42.75540
C         52.77677       41.21422       43.16754
O         51.79013       40.50641       43.02328
C         54.99218       40.23624       43.97267
C         54.25502       39.26111       44.86104
C         53.90484       37.98483       44.38067
C         53.89033       39.62532       46.16733
C         53.19612       37.09542       45.19092
C         53.17913       38.73189       46.97401
C         52.83120       37.46916       46.48598
H         55.78954       41.77481       42.02442
H         53.91400       39.64917       42.23767
H         55.28121       41.13189       44.54594
H         55.93647       39.76082       43.62855
H         54.17633       37.67685       43.37866
H         54.14351       40.60371       46.55626
H         52.92715       36.11778       44.81191
H         52.89324       39.02081       47.97654
H         52.27801       36.78026       47.11038
N         52.62451       42.48426       43.66691
C         51.33560       43.06441       44.04027
C         50.25348       42.86046       42.99654
O         49.13977       42.49330       43.34292
C         51.64544       44.56323       44.16680
C         53.05850       44.54148       44.68902
C         53.68929       43.45936       43.82040
H         51.02226       42.64774       45.02395
H         51.69742       45.03349       43.15740
H         50.91506       45.13172       44.78132
H         53.59169       45.51557       44.67291
H         53.01895       44.17122       45.73970
H         53.96794       43.84201       42.81374
H         54.58213       43.09473       44.35207
N         50.54125       43.06927       41.68404
C         49.57323       42.95322       40.59808
C         48.98435       41.55855       40.54819
O         47.77232       41.42494       40.64025
C         50.23823       43.26412       39.23976
C         50.84700       44.67202       39.18803
C         51.61447       44.91727       37.93048
O         52.37280       46.01436       37.88298
O         51.64076       44.11465       37.01257
H         51.51525       43.31425       41.46150
H         48.75774       43.69445       40.75922
H         49.48795       43.16612       38.42412
H         51.05164       42.52861       39.05882
H         51.58733       44.80253       39.99875
H         50.07059       45.45376       39.32061
N         49.79384       40.47224       40.40104
C         49.30831       39.11153       40.32034
H         48.20112       39.05342       40.36784
H         49.64272       38.66368       39.36096
H         49.73202       38.52159       41.15949
H         50.81139       40.60761       40.34546
Ca        53.87608       46.50731       36.32064
O         50.94951       44.44233       34.27271
H         50.44135       43.66492       34.61488
H         50.61033       44.57865       33.35320
O         53.12709       46.06444       33.29934
H         52.60534       46.18869       32.46678
H         53.44811       46.97008       33.53745

Ca 1.0



