%chk=holoCaM-CaMKII.loop2.water0.frame126.chk
%nprocshared=20
%mem=10GB
%nosave
#b3lyp/svp scf=(tight,noincore,xqc) Test 
#IOP(5/87=12) Density=Current Pop=(MK,readradii) iop(6/33=2) iop(6/42=6)

holoCaM-CaMKII.loop2.water0.frame126 

   -2  1 
C         24.35378       75.36100       74.21209
C         24.16900       76.30222       73.06199
O         24.88419       76.20210       72.07529
H         24.58480       75.93645       75.13246
H         23.41369       74.78934       74.36828
H         25.17762       74.64519       74.01035
N         23.19001       77.24237       73.12037
C         22.89000       78.14492       72.01981
C         24.06669       79.07444       71.75224
O         24.51219       79.73667       72.67951
C         21.62261       78.95683       72.35002
C         21.01236       79.62207       71.15326
O         19.94245       80.41104       71.33167
O         21.42807       79.41434       70.02345
H         22.60519       77.27932       73.97062
H         22.65920       77.52111       71.13508
H         21.85616       79.71100       73.13289
H         20.83352       78.28083       72.74399
N         24.60615       79.18630       70.50398
C         25.76066       80.02357       70.19517
C         25.40438       81.23437       69.34263
O         26.28047       82.06734       69.15310
C         26.82913       79.17190       69.49969
H         24.17453       78.66184       69.73796
H         26.19357       80.42820       71.13516
H         27.73878       79.77309       69.28775
H         27.11558       78.31554       70.14632
H         26.43728       78.77205       68.53812
N         24.16123       81.41752       68.80442
C         23.78321       82.61361       68.04942
C         22.57333       83.34638       68.64789
O         22.42498       84.52382       68.35132
C         23.61512       82.28498       66.54988
C         22.79257       81.05338       66.29404
O         23.27887       80.10210       65.70294
O         21.53149       80.97644       66.73134
H         23.46121       80.67351       68.90812
H         24.60496       83.36207       68.09839
H         24.62418       82.09722       66.12169
H         23.18177       83.15871       66.01621
N         21.67670       82.74675       69.48700
C         20.58929       83.44804       70.16549
C         19.20090       83.10389       69.64015
O         18.23339       83.58073       70.21512
H         21.76074       81.74771       69.67529
H         20.70406       84.54908       70.07847
H         20.65321       83.19909       71.24746
N         19.02271       82.35692       68.51424
C         17.72588       82.13554       67.86725
C         16.74848       81.19757       68.59884
O         15.66758       80.98416       68.06439
C         17.92649       81.66477       66.40541
C         18.82577       80.43707       66.19515
N         18.48346       79.79294       64.92969
O         18.76976       79.52839       67.25468
H         19.86197       82.03751       68.02441
H         17.20992       83.11801       67.77673
H         18.39160       82.48465       65.81465
H         16.92411       81.48763       65.95837
H         18.67806       80.46226       64.15151
H         19.09290       78.96365       64.77482
N         17.00039       80.64170       69.81748
C         16.01805       79.83716       70.54164
C         15.88637       78.38549       70.08707
O         15.08692       77.67621       70.67446
H         17.86631       80.88657       70.30421
H         15.02911       80.34655       70.51086
H         16.32621       79.79048       71.60781
N         16.66039       77.86409       69.09429
C         16.66081       76.45486       68.68483
C         18.05652       75.87297       68.88635
O         18.93879       76.58783       69.33345
C         16.24020       76.32463       67.19658
C         14.80066       76.79407       66.95238
O         17.14444       76.98728       66.34623
H         17.31576       78.48272       68.62623
H         15.95230       75.86060       69.30007
H         16.25033       75.25205       66.91035
H         16.92649       77.95422       66.35860
H         14.68669       77.87117       67.19527
H         14.53682       76.63755       65.88451
H         14.09875       76.20443       67.57918
N         18.33146       74.57571       68.53421
C         19.67744       74.01950       68.60358
C         20.13409       73.73945       67.17769
O         19.63845       72.79615       66.57883
C         19.71705       72.70570       69.45997
C         19.04222       72.87567       70.84357
C         21.16967       72.21116       69.61956
C         18.92695       71.55338       71.61728
H         17.58365       73.98097       68.15523
H         20.36429       74.75564       69.06527
H         19.13383       71.92900       68.91651
H         18.00359       73.23844       70.69206
H         19.58907       73.62296       71.45725
H         21.63698       72.05223       68.63568
H         21.77438       72.94839       70.19019
H         21.22012       71.23156       70.13313
H         19.91992       71.14714       71.89589
H         18.36218       71.71618       72.55817
H         18.38384       70.79659       71.00974
N         21.07288       74.52051       66.55865
C         21.62951       74.15770       65.25626
C         22.44343       72.87718       65.39569
O         22.67609       72.42636       66.50586
C         22.55472       75.25960       64.68590
C         21.84799       76.41976       64.03683
O         21.07664       77.30269       64.69131
O         22.00104       76.59191       62.83727
H         21.41496       75.36309       67.03134
H         20.80212       73.97275       64.53580
H         23.13448       74.80802       63.85688
H         23.28490       75.60451       65.44566
N         22.90611       72.22171       64.29546
C         23.68935       70.99847       64.40024
C         25.02136       71.24158       65.11808
O         25.25433       70.53437       66.08845
C         23.89088       70.32956       63.02320
C         24.76217       69.10484       63.15535
C         26.05881       69.11109       62.61504
C         24.30930       67.96825       63.84775
C         26.89202       68.00180       62.77085
C         25.14370       66.85554       63.99211
C         26.43500       66.87394       63.45705
H         22.66625       72.58657       63.36082
H         23.10288       70.26360       64.99928
H         24.34987       71.03050       62.31228
H         22.91061       70.05133       62.57866
H         26.43236       69.98336       62.09255
H         23.31411       67.94360       64.27442
H         27.89429       68.02079       62.36377
H         24.79181       65.98108       64.52388
H         27.08323       66.01611       63.57663
N         25.95346       72.18078       64.73809
C         27.22818       72.37725       65.42816
C         27.08232       72.56599       66.92505
O         27.98951       72.22135       67.66868
C         27.76987       73.67833       64.81883
C         27.23582       73.61029       63.41215
C         25.81093       73.13246       63.65263
H         27.88161       71.50670       65.19849
H         27.26845       74.55590       65.29254
H         28.86880       73.80999       64.91154
H         27.31060       74.55140       62.82656
H         27.79118       72.80588       62.87728
H         25.16279       73.96057       63.99855
H         25.44686       72.72225       62.70190
N         25.96599       73.16175       67.42131
C         25.73722       73.42006       68.83441
C         25.59203       72.10167       69.57161
O         26.34572       71.85692       70.50302
C         24.49107       74.31840       69.00721
C         24.68428       75.66474       68.26857
C         23.48522       76.55916       68.33179
O         23.47684       77.59559       67.68650
O         22.41046       76.23119       69.07043
H         25.24102       73.44711       66.74897
H         26.59808       73.99011       69.25157
H         24.31925       74.51175       70.08787
H         23.59651       73.80228       68.59878
H         24.87300       75.48697       67.19353
H         25.56445       76.20345       68.68054
N         24.66535       71.18507       69.17015
C         24.50361       69.87903       69.77711
H         23.46019       69.76381       70.13665
H         24.70467       69.09633       69.01426
H         25.19391       69.71786       70.63109
H         24.05813       71.40507       68.36992
Ca        20.23404       77.86937       66.69022

Ca 1.0



