%chk=holoCaM-CaMKII.loop4.water1.frame365.chk
%nprocshared=20
%mem=10GB
%nosave
#b3lyp/svp scf=(tight,noincore,xqc) Test 
#IOP(5/87=12) Density=Current Pop=(MK,readradii) iop(6/33=2) iop(6/42=6)

holoCaM-CaMKII.loop4.water1.frame365 

   -3  1 
C         68.94158       69.12768       27.29562
C         69.92265       68.80922       26.20647
O         69.65066       67.95505       25.37829
H         68.02715       68.50495       27.20448
H         69.41181       68.92900       28.28284
H         68.65793       70.19977       27.24107
N         71.10674       69.47261       26.16167
C         72.15204       69.22393       25.17410
C         72.64541       67.77594       25.23318
O         73.01184       67.28398       26.29026
C         73.28955       70.24740       25.37489
C         74.56042       69.87905       24.66799
O         75.57368       69.76850       25.33791
O         74.61291       69.51053       23.37174
H         71.27034       70.19299       26.88324
H         71.75140       69.41727       24.15361
H         73.53718       70.31891       26.45807
H         72.93466       71.24680       25.04326
N         72.72267       67.07221       24.06817
C         73.16457       65.68883       23.90680
C         74.54462       65.68228       23.23643
O         75.44675       65.02683       23.73781
C         72.08118       64.92135       23.07266
C         70.73487       64.89886       23.84984
C         72.53529       63.49299       22.71838
C         69.54981       64.32965       23.06383
H         72.46000       67.56885       23.20733
H         73.27268       65.17974       24.89092
H         71.92886       65.46319       22.11392
H         70.45260       65.93584       24.11377
H         70.85614       64.32301       24.79342
H         72.69859       62.89106       23.63611
H         71.78487       62.98377       22.07956
H         73.47361       63.51719       22.12653
H         68.63291       64.39513       23.68885
H         69.38216       64.91909       22.13792
H         69.69767       63.26285       22.80423
N         74.77989       66.42553       22.11916
C         76.04729       66.48318       21.37606
C         77.25728       66.98457       22.17341
O         78.35626       66.94063       21.63550
C         75.91281       67.52367       20.24165
C         74.73102       67.36431       19.33229
O         73.69465       68.22857       19.44027
O         74.70110       66.46828       18.50495
H         73.98696       66.96490       21.75971
H         76.26124       65.46633       20.98161
H         76.83766       67.59454       19.62695
H         75.78605       68.49294       20.76335
N         77.13337       67.58591       23.38603
C         78.23306       68.26829       24.05160
C         78.73016       69.46923       23.25732
O         79.93234       69.62092       23.09742
H         76.21482       67.62642       23.84359
H         79.06180       67.56386       24.28104
H         77.85714       68.66115       25.01933
N         77.84480       70.37787       22.75532
C         78.20534       71.64401       22.11962
C         77.56688       72.83615       22.85035
O         77.74294       73.95882       22.39616
C         77.85865       71.63985       20.61020
C         76.46336       71.21203       20.26455
O         76.28468       70.38575       19.38587
O         75.40476       71.74909       20.88254
H         76.84394       70.17357       22.84575
H         79.30307       71.81478       22.16767
H         78.55971       70.96037       20.07741
H         78.03070       72.66017       20.20467
N         76.87618       72.68711       24.02093
C         76.35922       73.79884       24.80496
C         75.13858       74.49568       24.23693
O         74.67071       75.41193       24.89648
H         76.79245       71.75776       24.44717
H         77.17290       74.53560       24.97948
H         76.04620       73.40595       25.79757
N         74.54434       74.12239       23.06504
C         73.31781       74.74256       22.56342
C         72.19791       73.71736       22.47871
O         72.45078       72.52623       22.58218
C         73.58578       75.53330       21.25841
C         74.16678       74.73879       20.07271
C         73.16548       73.83225       19.41313
N         72.07979       74.35326       18.80155
O         73.34865       72.62574       19.39069
H         74.95023       73.35546       22.52687
H         72.96410       75.49580       23.29982
H         74.34193       76.30542       21.51890
H         72.66841       76.07390       20.93990
H         75.06690       74.18376       20.40113
H         74.50481       75.45591       19.29403
H         71.91860       75.37006       18.77641
H         71.41230       73.73628       18.32789
N         70.90396       74.14593       22.41801
C         69.74821       73.25858       22.51300
C         68.83678       73.50240       21.32209
O         68.45100       74.63805       21.08862
C         69.00371       73.51616       23.85887
C         67.76222       72.61611       24.00597
C         69.93534       73.25903       25.05874
H         70.72525       75.16092       22.39144
H         70.06042       72.19160       22.52655
H         68.67075       74.57699       23.89897
H         68.04696       71.54184       23.98039
H         67.25109       72.82164       24.97166
H         67.03069       72.81338       23.19660
H         70.28660       72.20401       25.06507
H         70.81985       73.92830       25.02764
H         69.40096       73.45724       26.01294
N         68.39880       72.45409       20.56825
C         67.45488       72.59167       19.46299
C         66.09543       72.08062       19.88188
O         65.92893       71.61458       20.99496
C         67.93785       71.76465       18.24668
C         69.14669       72.34032       17.57621
N         69.08811       73.55501       16.98205
O         70.17556       71.68759       17.52543
H         68.67322       71.50137       20.84388
H         67.30991       73.65681       19.18277
H         67.15801       71.71452       17.45955
H         68.13600       70.72049       18.57892
H         68.21674       74.10452       16.99219
H         69.90821       73.93984       16.49108
N         65.05884       72.15753       19.00387
C         63.74045       71.59265       19.25297
C         63.84535       70.08180       19.38690
O         63.33009       69.53376       20.35236
C         62.80374       71.98168       18.09122
C         61.39293       71.48013       18.27156
C         60.63133       71.86015       19.39089
C         60.81903       70.63950       17.30479
C         59.31974       71.40148       19.54004
C         59.50590       70.18726       17.45299
C         58.75141       70.56697       18.57224
O         57.48203       70.14037       18.72517
H         65.22616       72.62435       18.09991
H         63.32313       72.03026       20.18627
H         63.23037       71.60393       17.13567
H         62.76517       73.09119       18.02504
H         61.04782       72.51239       20.14791
H         61.38475       70.33896       16.43159
H         58.74339       71.69965       20.40685
H         59.07630       69.54457       16.69542
H         57.05046       69.56970       18.07347
N         64.54703       69.35324       18.46728
C         64.71850       67.89844       18.52560
C         65.40819       67.38370       19.79302
O         65.50127       66.17235       19.93644
C         65.48753       67.38839       17.27902
C         66.94279       67.89357       17.19800
C         67.64403       67.33553       15.99384
O         67.23054       67.57832       14.87123
O         68.74451       66.57412       16.14767
H         64.96266       69.86651       17.67574
H         63.70241       67.44676       18.49859
H         64.93536       67.70120       16.36598
H         65.50150       66.27568       17.29825
H         67.49879       67.57714       18.10449
H         66.97279       69.00018       17.13704
N         65.89594       68.21753       20.75541
C         66.52055       67.75777       21.98649
C         65.58373       68.04951       23.14228
O         65.20556       67.12040       23.84281
C         67.90654       68.41150       22.15992
C         68.79406       68.12432       20.93845
C         70.20103       68.59476       21.12656
O         71.20811       67.71146       21.01780
O         70.44644       69.76996       21.34241
H         65.82235       69.22902       20.63417
H         66.68210       66.65640       21.96121
H         68.37869       67.98982       23.07267
H         67.81218       69.51276       22.28819
H         68.37209       68.63180       20.04643
H         68.81793       67.02980       20.74756
N         65.10929       69.30587       23.36401
C         64.12643       69.59330       24.38509
H         63.20955       68.99061       24.20372
H         64.53530       69.35930       25.38905
H         63.84600       70.66800       24.34723
H         65.41817       70.08026       22.76641
Ca        73.48255       69.36606       21.41886
O         72.24684       69.84948       17.73349
H         72.12631       70.21476       18.64658
H         71.55050       69.14963       17.65569

Ca 1.0



