%chk=holoCaM.loop2.water2.frame428.chk
%nprocshared=20
%mem=10GB
%nosave
#b3lyp/svp scf=(tight,noincore,xqc) Test 
#IOP(5/87=12) Density=Current Pop=(MK,readradii) iop(6/33=2) iop(6/42=6)

holoCaM.loop2.water2.frame428 

   -2  1 
C        -13.20408      106.65240       51.17306
C        -12.67224      107.94979       51.70876
O        -11.53005      107.99249       52.14285
H        -14.24107      106.76726       50.79009
H        -12.56354      106.31256       50.33172
H        -13.20378      105.88455       51.97225
N        -13.44381      109.06830       51.67299
C        -12.95932      110.37986       52.07389
C        -12.67648      110.45862       53.56980
O        -13.58447      110.27607       54.36878
C        -13.99240      111.43884       51.67427
C        -13.49739      112.83646       51.83564
O        -14.26541      113.74475       51.60840
O        -12.23602      113.11318       52.21638
H        -14.39244      108.99267       51.27253
H        -12.03820      110.58794       51.49572
H        -14.91463      111.29956       52.28018
H        -14.25609      111.31836       50.60064
N        -11.42246      110.75415       54.00839
C        -11.06096      110.89686       55.41482
C        -11.71983      112.10812       56.07058
O        -12.27637      111.95932       57.14897
C         -9.53776      111.03217       55.54538
H        -10.67945      110.86816       53.30150
H        -11.33453      109.96820       55.96558
H         -9.16588      111.93596       55.01735
H         -9.24873      111.09433       56.61693
H         -9.04426      110.13544       55.11190
N        -11.65195      113.34540       55.49316
C        -12.07189      114.59178       56.14857
C        -13.32164      115.22531       55.52508
O        -13.69014      116.31179       55.95058
C        -10.86918      115.57123       56.15483
C        -10.46934      115.94552       54.75918
O         -9.33897      115.45595       54.24073
O        -11.22518      116.57729       54.04736
H        -11.23337      113.41279       54.55473
H        -12.32797      114.39774       57.21321
H        -10.01614      115.05685       56.65084
H        -11.09286      116.49346       56.73151
N        -14.07142      114.58144       54.58410
C        -15.35101      115.08797       54.09487
C        -15.29992      116.22680       53.07928
O        -16.37389      116.68339       52.71296
H        -13.80813      113.62540       54.31629
H        -15.96370      115.39974       54.97029
H        -15.89916      114.25447       53.60708
N        -14.14132      116.75379       52.57939
C        -14.14273      117.92674       51.69229
C        -14.64305      117.64506       50.27177
O        -14.94350      118.59248       49.55956
C        -12.76662      118.62557       51.66035
C        -11.70327      117.88741       50.87983
N        -11.07871      118.49303       49.84198
O        -11.38890      116.74941       51.19112
H        -13.25258      116.37179       52.91131
H        -14.83175      118.66172       52.16622
H        -12.41821      118.77750       52.70453
H        -12.90182      119.63343       51.21119
H        -11.31939      119.45612       49.56477
H        -10.33715      118.00618       49.32081
N        -14.71914      116.37596       49.78474
C        -15.22928      116.00803       48.47418
C        -14.20736      115.28703       47.61068
O        -14.61316      114.75577       46.58694
H        -14.40673      115.61108       50.37747
H        -15.61773      116.88237       47.90937
H        -16.08171      115.31468       48.64465
N        -12.87231      115.26239       47.91162
C        -11.87203      114.59458       47.06969
C        -10.98667      113.66817       47.89557
O        -11.09164      113.66589       49.11457
C        -10.99705      115.65546       46.35786
C        -11.82695      116.51688       45.39878
O        -10.37990      116.47469       47.31488
H        -12.53617      115.78346       48.73426
H        -12.36922      113.97326       46.29253
H        -10.21821      115.13089       45.75841
H         -9.66040      116.97761       46.85208
H        -12.29730      115.87726       44.62222
H        -12.61893      117.07228       45.94368
H        -11.16921      117.25449       44.89179
N        -10.08197      112.84421       47.27817
C         -9.13090      112.00564       48.00672
C         -7.70446      112.28287       47.53470
O         -7.37722      112.03302       46.38403
C         -9.51281      110.49141       47.95269
C         -9.63372      109.91440       46.51755
C        -10.80692      110.27867       48.75811
C         -9.94229      108.41312       46.49205
H        -10.06439      112.81253       46.24775
H         -9.15853      112.27178       49.08301
H         -8.71249      109.93084       48.48440
H         -8.67240      110.04466       45.98443
H        -10.42713      110.44708       45.95148
H        -11.66806      110.79166       48.28083
H        -11.04442      109.20369       48.88331
H        -10.66478      110.68436       49.77831
H        -10.94092      108.19410       46.92133
H         -9.95107      108.05305       45.44214
H         -9.16931      107.84915       47.05518
N         -6.79798      112.82305       48.40160
C         -5.39121      113.08354       48.08026
C         -4.64444      111.74412       47.94480
O         -5.28425      110.71786       48.09317
C         -4.80536      113.96342       49.22072
C         -3.52812      114.71050       48.92983
O         -3.04562      114.74955       47.81020
O         -2.96682      115.44343       49.90961
H         -7.13177      113.06952       49.34237
H         -5.35389      113.67234       47.13708
H         -4.69735      113.33939       50.13297
H         -5.53301      114.76946       49.45735
N         -3.31097      111.64929       47.67096
C         -2.60009      110.37390       47.56036
C         -2.63548      109.56354       48.86255
O         -3.02978      108.41051       48.77737
C         -1.16358      110.59642       47.02459
C         -0.37617      109.32075       46.80426
C         -0.86860      108.29729       45.97198
C          0.88425      109.15802       47.40865
C         -0.11771      107.13698       45.75653
C          1.63552      108.00028       47.18125
C          1.13446      106.99010       46.35734
H         -2.77100      112.50280       47.50696
H         -3.11361      109.77246       46.77762
H         -0.59546      111.27584       47.68496
H         -1.24833      111.10896       46.04211
H         -1.83017      108.39172       45.48604
H          1.29495      109.93207       48.04483
H         -0.50416      106.35333       45.11751
H          2.60946      107.88812       47.64034
H          1.71800      106.09532       46.18140
N         -2.27706      110.05783       50.09604
C         -2.36448      109.28988       51.34119
C         -3.69645      108.57786       51.50611
O         -3.72686      107.39111       51.80016
C         -2.21501      110.36275       52.43449
C         -1.28371      111.34818       51.77579
C         -1.85295      111.41798       50.36235
H         -1.51764      108.56929       51.38233
H         -3.17561      110.90795       52.58152
H         -1.88635      109.97404       53.42224
H         -1.19160      112.33183       52.28443
H         -0.27807      110.87231       51.72644
H         -2.74158      112.07954       50.31054
H         -1.05517      111.78947       49.69818
N         -4.84291      109.27139       51.28766
C         -6.19751      108.73447       51.39390
C         -6.38280      107.56656       50.44417
O         -6.76353      106.49526       50.89389
C         -7.19909      109.87988       51.10591
C         -7.09815      110.92370       52.23081
C         -7.74250      112.22974       51.91191
O         -7.06509      113.24585       51.95321
O         -9.05992      112.34316       51.69029
H         -4.73138      110.25496       50.99554
H         -6.38556      108.37186       52.43056
H         -8.24749      109.51246       51.05408
H         -6.94134      110.33861       50.12718
H         -6.03881      111.16135       52.45772
H         -7.53788      110.50427       53.15933
N         -6.08967      107.69380       49.12290
C         -6.19300      106.62061       48.15844
H         -5.18633      106.41642       47.73522
H         -6.58500      105.68478       48.60640
H         -6.86647      106.93378       47.33476
H         -5.74140      108.58973       48.78043
Ca        -9.59518      114.43501       52.25862
O         -8.26741      115.36131       49.56987
H         -9.22393      115.59083       49.47112
H         -7.81997      115.81412       48.81200
O         -8.32062      117.11443       52.00068
H         -8.30688      117.80294       52.71141
H         -7.56395      117.34841       51.40736

Ca 1.0



