%chk=holoCaM.loop2.water1.frame316.chk
%nprocshared=20
%mem=10GB
%nosave
#b3lyp/svp scf=(tight,noincore,xqc) Test 
#IOP(5/87=12) Density=Current Pop=(MK,readradii) iop(6/33=2) iop(6/42=6)

holoCaM.loop2.water1.frame316 

   -2  1 
C         -0.06474       25.21363       60.84481
C         -1.43119       25.84286       60.73238
O         -1.52588       27.05873       60.67948
H          0.44965       25.55760       61.76448
H         -0.12620       24.10347       60.87227
H          0.54734       25.49193       59.95937
N         -2.53541       25.05510       60.63500
C         -3.88096       25.55058       60.34915
C         -4.62222       26.05251       61.58327
O         -4.71733       25.31703       62.55617
C         -4.69329       24.39612       59.73395
C         -6.09619       24.80599       59.40946
O         -7.12728       24.16171       59.98682
O         -6.30682       25.73029       58.64216
H         -2.38275       24.03404       60.62683
H         -3.82702       26.34246       59.56756
H         -4.72604       23.54115       60.44462
H         -4.19402       24.05763       58.80041
N         -5.27841       27.25393       61.55314
C         -6.15835       27.72598       62.62421
C         -7.59572       28.02295       62.15535
O         -8.39289       28.41074       62.99870
C         -5.56081       29.00691       63.21645
H         -5.16712       27.85286       60.72202
H         -6.21991       26.96925       63.43608
H         -6.17957       29.37426       64.06364
H         -4.53586       28.81121       63.59527
H         -5.51034       29.80350       62.44191
N         -7.98633       27.94435       60.84486
C         -9.27657       28.45714       60.35132
C        -10.05981       27.50099       59.44500
O        -11.16359       27.86623       59.06108
C         -9.03113       29.80158       59.62185
C         -7.82123       29.74218       58.72959
O         -7.69839       28.79601       57.78333
O         -6.87148       30.47238       58.96347
H         -7.29876       27.64258       60.14426
H         -9.96380       28.67426       61.19872
H         -8.82642       30.57551       60.39481
H         -9.93523       30.12797       59.06435
N         -9.60191       26.27462       59.07329
C        -10.38533       25.33995       58.27054
C        -10.64121       25.74860       56.82495
O        -11.31263       24.98717       56.14210
H         -8.69649       25.95483       59.42526
H        -11.36095       25.16704       58.77579
H         -9.84932       24.36680       58.23486
N        -10.15410       26.89792       56.26905
C        -10.41375       27.27632       54.87654
C         -9.72943       26.36965       53.83909
O         -9.91376       26.61622       52.65448
C        -10.04918       28.76023       54.62562
C         -8.58955       29.10784       54.74590
N         -8.17902       30.35888       54.45152
O         -7.77084       28.27505       55.09820
H         -9.62348       27.54771       56.85889
H        -11.51273       27.21990       54.70956
H        -10.61947       29.40216       55.33245
H        -10.37400       29.02656       53.59614
H         -8.84852       31.08107       54.14823
H         -7.18339       30.59561       54.51123
N         -8.95560       25.29772       54.18773
C         -8.36123       24.38771       53.21753
C         -7.09267       24.89899       52.55918
O         -6.51910       24.14690       51.78462
H         -8.83345       25.05120       55.17717
H         -9.11868       24.09824       52.45507
H         -8.06647       23.46041       53.75363
N         -6.58013       26.13729       52.81362
C         -5.33759       26.63656       52.22767
C         -4.36673       27.10455       53.30201
O         -4.79450       27.44554       54.39582
C         -5.65142       27.80477       51.26112
C         -6.44184       27.30332       50.05080
O         -6.40732       28.80594       51.89898
H         -7.09493       26.76746       53.43212
H         -4.82418       25.83378       51.65449
H         -4.70417       28.24024       50.86865
H         -5.84104       29.20758       52.60680
H         -5.86259       26.52304       49.51214
H         -7.41815       26.87579       50.36417
H         -6.63426       28.14385       49.35152
N         -3.03376       27.21647       53.02015
C         -2.08494       27.81736       53.95056
C         -2.06071       29.31334       53.67693
O         -1.60781       29.71805       52.61506
C         -0.65670       27.19669       53.79707
C         -0.66859       25.66756       54.05522
C          0.34130       27.88788       54.74222
C          0.69291       24.99615       53.82272
H         -2.70376       26.96117       52.07709
H         -2.42388       27.63350       54.99607
H         -0.31544       27.37211       52.75217
H         -1.38935       25.18927       53.35989
H         -0.99800       25.45970       55.09686
H          1.36840       27.52439       54.56359
H          0.37754       28.97768       54.56277
H          0.06900       27.69758       55.79919
H          0.59812       23.90006       53.96638
H          1.04866       25.19010       52.78831
H          1.45861       25.34885       54.54361
N         -2.55836       30.19559       54.58921
C         -2.51612       31.64634       54.40174
C         -1.09283       32.17137       54.53372
O         -0.18524       31.39003       54.78489
C         -3.40397       32.33674       55.46027
C         -4.84730       31.98231       55.29722
O         -5.51280       31.37791       56.29944
O         -5.43170       32.27572       54.26620
H         -3.00157       29.81710       55.43903
H         -2.91257       31.90576       53.39453
H         -3.34721       33.43912       55.35653
H         -3.05962       32.05018       56.47882
N         -0.81959       33.50116       54.39483
C          0.50341       34.06467       54.63652
C          0.92025       33.86667       56.09877
O          2.02638       33.39420       56.29416
C          0.58931       35.54824       54.21399
C          1.97996       36.10466       54.42308
C          3.06939       35.62174       53.67431
C          2.19929       37.11131       55.37899
C          4.35176       36.14165       53.87899
C          3.48373       37.62224       55.58500
C          4.55876       37.13983       54.83456
H         -1.58379       34.13936       54.12215
H          1.23137       33.53029       53.98323
H         -0.13654       36.15811       54.77292
H          0.32088       35.65061       53.14015
H          2.92728       34.84925       52.92899
H          1.37846       37.49331       55.97302
H          5.18594       35.77070       53.29717
H          3.64503       38.39237       56.32790
H          5.55188       37.53951       54.99411
N          0.12146       34.16551       57.18327
C          0.52780       33.92482       58.56989
C          0.80516       32.46512       58.92055
O          1.20951       32.20886       60.04788
C         -0.67900       34.39969       59.39437
C         -1.27134       35.46883       58.50680
C         -1.17793       34.79870       57.14335
H          1.42314       34.55637       58.76119
H         -1.44318       33.58648       59.43466
H         -0.44288       34.70433       60.43606
H         -2.29648       35.79273       58.78681
H         -0.59144       36.35082       58.51881
H         -1.94905       34.01102       57.06404
H         -1.31929       35.56039       56.36397
N          0.56877       31.45584       58.03308
C          0.74599       30.03807       58.31806
C          1.84286       29.42272       57.45403
O          2.19473       28.27770       57.69662
C         -0.60158       29.32014       58.07750
C         -1.69590       29.87732       58.99865
C         -3.07426       29.37500       58.68511
O         -3.33143       28.55558       57.64574
O         -4.00608       29.77737       59.36157
H          0.18899       31.68603       57.11172
H          1.06126       29.89564       59.37547
H         -0.50395       28.22534       58.24718
H         -0.89900       29.48984       57.01890
H         -1.74954       30.98128       58.89653
H         -1.44048       29.63400       60.05146
N          2.44180       30.11296       56.43987
C          3.53454       29.57643       55.66018
H          4.40999       29.39662       56.31733
H          3.24018       28.63074       55.16815
H          3.82576       30.30686       54.87367
H          2.12587       31.05244       56.19407
Ca        -5.54721       28.33050       57.28577
O         -5.79681       25.26613       55.80566
H         -6.36034       24.61883       56.29781
H         -4.97197       25.35139       56.34781

Ca 1.0



