%chk=holoCaM-CaMKII.loop3.water2.frame13.chk
%nprocshared=20
%mem=10GB
%nosave
#b3lyp/svp scf=(tight,noincore,xqc) Test 
#IOP(5/87=12) Density=Current Pop=(MK,readradii) iop(6/33=2) iop(6/42=6)

holoCaM-CaMKII.loop3.water2.frame13 

   0  1 
C         46.05017       63.33869       26.43464
C         44.86939       62.52168       26.85984
O         44.73142       61.40183       26.39182
H         46.98424       62.79419       26.68604
H         46.00603       63.50462       25.33782
H         46.06457       64.32450       26.94464
N         43.97316       63.00948       27.76103
C         42.82134       62.23824       28.20172
C         41.87087       62.00851       27.02824
O         41.50114       62.99240       26.40119
C         42.07365       62.97778       29.34372
C         41.11633       62.04868       30.03215
O         40.38578       62.43867       30.91973
O         41.16923       60.75137       29.71399
H         44.13220       63.94594       28.16394
H         43.21161       61.27932       28.60981
H         41.54715       63.86981       28.94120
H         42.79439       63.31369       30.12072
N         41.42081       60.76117       26.67736
C         40.58679       60.53489       25.49524
C         39.13618       60.19493       25.81368
O         38.35154       60.22349       24.87444
C         41.20151       59.44951       24.58356
C         42.65790       59.70986       24.16213
C         42.84179       61.01123       23.37022
C         44.30138       61.18512       22.92874
N         44.48144       62.44664       22.21178
H         41.68541       59.94956       27.24924
H         40.51760       61.47790       24.91328
H         40.58167       59.34449       23.66583
H         41.17540       58.47756       25.12352
H         42.98690       58.85376       23.53281
H         43.30004       59.73483       25.06276
H         42.56309       61.87709       24.00568
H         42.18707       60.99510       22.47194
H         44.59507       60.33880       22.26876
H         44.96771       61.17730       23.81811
H         44.23340       63.25042       22.83393
H         45.48297       62.53863       21.92630
H         43.88030       62.46354       21.35620
N         38.67731       59.91037       27.07242
C         37.24451       59.79723       27.36964
C         36.79807       60.86447       28.37570
O         35.62484       60.88685       28.72044
C         36.83299       58.34800       27.72933
C         37.23315       57.82912       29.07546
O         36.95300       56.68175       29.38300
O         37.82528       58.62225       29.97524
H         39.34619       59.81681       27.84981
H         36.65670       60.00295       26.44865
H         37.23761       57.67281       26.94328
H         35.72342       58.27788       27.69059
N         37.65463       61.84318       28.80967
C         37.22839       62.99926       29.58478
C         36.95937       62.76615       31.05911
O         36.54938       63.72119       31.70406
H         38.62233       61.86909       28.46110
H         36.33123       63.43924       29.09809
H         38.03217       63.76692       29.54003
N         37.17799       61.57379       31.68638
C         36.89899       61.37427       33.11424
C         37.87128       62.11016       34.05973
O         37.74522       61.93914       35.26434
C         36.81302       59.86450       33.45031
C         38.13333       59.14308       33.54405
N         38.46121       58.46844       34.67172
O         38.90087       59.14444       32.59838
H         37.49402       60.77481       31.12398
H         35.86670       61.74674       33.30016
H         36.17392       59.36545       32.68898
H         36.29068       59.75782       34.42589
H         37.82353       58.44416       35.48082
H         39.34994       57.95366       34.73976
N         38.84381       62.95476       33.60058
C         39.80025       63.65550       34.44692
C         40.84055       62.71285       35.00471
O         41.00850       62.65853       36.21070
H         38.90573       63.15841       32.60135
H         39.26776       64.21821       35.24483
H         40.35028       64.39398       33.82371
N         41.59300       61.96467       34.14606
C         42.59942       60.95645       34.50302
C         43.21249       60.40232       33.21944
O         42.47116       59.99266       32.33700
C         41.97493       59.76546       35.27138
C         41.69919       60.04141       36.72936
C         40.38599       60.06595       37.22700
C         42.77002       60.26259       37.61424
C         40.14742       60.32365       38.58033
C         42.53013       60.50649       38.96949
C         41.21592       60.54158       39.45641
O         40.96852       60.78148       40.75996
H         41.41627       62.12063       33.14444
H         43.41271       61.40641       35.11283
H         42.67904       58.90377       35.26669
H         41.06287       59.45308       34.72647
H         39.54693       59.90717       36.56759
H         43.79217       60.23565       37.25651
H         39.12970       60.35424       38.94792
H         43.36588       60.66772       39.63915
H         41.67920       60.93245       41.39954
N         44.56590       60.30684       33.07576
C         45.21152       59.77909       31.87525
C         45.72344       58.38238       32.17984
O         46.46310       58.21742       33.14005
C         46.38032       60.70359       31.42004
C         45.90672       62.16807       31.23717
C         47.00370       60.15867       30.11410
C         47.05774       63.14219       30.96529
H         45.16776       60.56945       33.87152
H         44.48225       59.72004       31.03712
H         47.15473       60.69486       32.21987
H         45.42386       62.51526       32.17520
H         45.15880       62.23244       30.41816
H         47.36108       59.11671       30.24556
H         46.25505       60.17194       29.29181
H         47.88671       60.74983       29.80329
H         47.56456       62.92640       30.00405
H         46.66225       64.17769       30.90998
H         47.80123       63.09446       31.79055
N         45.38597       57.33230       31.37512
C         45.82845       55.96130       31.61209
C         46.81027       55.51077       30.54021
O         47.10968       56.27002       29.63301
C         44.60155       55.03568       31.69310
O         43.90121       55.01705       30.47633
H         44.80840       57.51395       30.54152
H         46.36894       55.89216       32.58064
H         43.93920       55.36074       32.52912
H         44.90457       53.99649       31.93512
H         43.14546       55.65391       30.56555
N         47.39029       54.27954       30.62427
C         48.39795       53.78213       29.68889
C         47.86354       53.67363       28.27474
O         48.48164       54.20869       27.36482
C         48.89595       52.40473       30.14183
H         47.12716       53.67804       31.41949
H         49.27674       54.46557       29.69982
H         49.33124       52.47799       31.16115
H         48.06511       51.66741       30.16184
H         49.68564       52.03838       29.45122
N         46.70857       52.99662       28.02333
C         46.13321       52.82323       26.69059
C         45.98774       54.14631       25.97151
O         46.39132       54.26026       24.82287
C         44.74977       52.16668       26.80852
H         46.19701       52.60870       28.83195
H         46.78251       52.15485       26.08368
H         44.30465       52.01861       25.80131
H         44.83497       51.17716       27.30453
H         44.06166       52.80351       27.40793
N         45.42914       55.19781       26.61832
C         45.19929       56.50499       26.01609
C         46.50215       57.10515       25.51795
O         46.59549       57.40210       24.33486
C         44.51097       57.42213       27.04341
C         43.13208       56.84817       27.44763
C         42.47396       57.62460       28.53488
O         42.98727       58.63991       28.97873
O         41.31780       57.18430       29.06569
H         45.16998       55.04677       27.60365
H         44.50943       56.39521       25.14846
H         44.37431       58.43810       26.61803
H         45.16021       57.51203       27.94268
H         43.22297       55.81887       27.83767
H         42.46159       56.82148       26.56263
N         47.56017       57.27898       26.35745
C         48.84522       57.79816       25.93349
H         49.62716       57.03131       26.11909
H         48.86456       58.05836       24.85427
H         49.08878       58.70772       26.52041
H         47.46549       57.00943       27.34349
Ca        40.41864       58.76963       30.32630
O         41.65367       57.17703       32.89461
H         42.34528       57.09005       33.59700
H         40.86282       56.71459       33.26889
O         40.02553       55.43388       31.02968
H         39.23428       55.83792       30.59380
H         40.29388       54.69634       30.42658

Ca 1.0



