%chk=holoCaM.loop2.water2.frame190.chk
%nprocshared=20
%mem=10GB
%nosave
#b3lyp/svp scf=(tight,noincore,xqc) Test 
#IOP(5/87=12) Density=Current Pop=(MK,readradii) iop(6/33=2) iop(6/42=6)

holoCaM.loop2.water2.frame190 

   -2  1 
C         40.38403       63.86319       99.25536
C         41.46121       64.55063      100.04223
O         41.69770       65.73090       99.82748
H         39.42155       64.39607       99.41142
H         40.63949       63.86594       98.17776
H         40.24793       62.81178       99.58964
N         42.12695       63.87400      101.01474
C         43.06756       64.50933      101.92193
C         44.33589       64.99453      101.22720
O         44.94564       64.21958      100.50437
C         43.39189       63.54252      103.08257
C         43.98434       64.32146      104.19738
O         45.03770       63.99235      104.71318
O         43.32727       65.43489      104.57291
H         41.87731       62.88621      101.18022
H         42.52792       65.37862      102.35905
H         44.03583       62.69227      102.76610
H         42.43853       63.13773      103.47877
N         44.80784       66.26254      101.44151
C         45.99086       66.81670      100.78486
C         47.13636       67.15147      101.74401
O         48.17374       67.56664      101.24333
C         45.58533       68.08513      100.02081
H         44.30004       66.86774      102.09723
H         46.39244       66.08638      100.04950
H         44.77847       67.85771       99.29305
H         45.21802       68.86192      100.72755
H         46.45068       68.50179       99.46081
N         47.05087       67.01730      103.10544
C         48.16998       67.37494      103.99296
C         48.35907       66.46747      105.21275
O         49.45799       66.48359      105.75138
C         48.14921       68.87426      104.39144
C         46.91518       69.31592      105.13075
O         45.88599       68.48639      105.29082
O         46.81654       70.45928      105.54055
H         46.15813       66.71115      103.50619
H         49.11090       67.21961      103.41709
H         48.23204       69.49990      103.47758
H         49.03205       69.08335      105.03374
N         47.36685       65.69756      105.74673
C         47.58050       64.80024      106.87657
C         47.06759       65.34839      108.19501
O         47.23204       64.66147      109.19365
H         46.41778       65.76313      105.37484
H         48.66378       64.59847      107.01692
H         47.10554       63.81944      106.65221
N         46.49311       66.58392      108.30566
C         46.11655       67.18164      109.59066
C         44.89544       66.53941      110.27664
O         44.45704       67.07033      111.28778
C         45.95217       68.71844      109.44873
C         44.77340       69.20732      108.65085
N         44.53948       70.53440      108.55596
O         44.01701       68.42518      108.10464
H         46.41558       67.16681      107.46165
H         46.98449       67.07869      110.27923
H         46.87820       69.13889      108.99680
H         45.85506       69.14737      110.46910
H         45.16616       71.21604      109.00757
H         43.71791       70.88036      108.04601
N         44.32336       65.38381      109.82906
C         43.19963       64.71608      110.47221
C         41.83544       65.33364      110.20597
O         40.86292       64.75076      110.66398
H         44.75196       64.88048      109.04983
H         43.38882       64.62437      111.56412
H         43.14007       63.68460      110.06153
N         41.66397       66.48691      109.49476
C         40.35406       67.08572      109.23582
C         40.15566       67.46290      107.77337
O         41.12005       67.72790      107.06860
C         40.18326       68.36107      110.09649
C         40.06973       68.00567      111.57905
O         41.27013       69.23849      109.92701
H         42.49051       66.99193      109.16823
H         39.53802       66.37867      109.50503
H         39.23364       68.87924      109.82724
H         41.24338       69.57469      108.99453
H         39.91751       68.92956      112.17534
H         39.19735       67.33653      111.74304
H         40.98875       67.49771      111.93887
N         38.88545       67.60440      107.28965
C         38.57508       68.18421      105.98567
C         38.88187       69.67285      106.05346
O         38.30286       70.35247      106.89082
C         37.06446       67.96818      105.61857
C         36.65712       66.47072      105.54166
C         36.67396       68.68189      104.30818
C         37.32881       65.66326      104.42587
H         38.10126       67.34177      107.90596
H         39.18193       67.69639      105.19608
H         36.44576       68.42203      106.42505
H         35.55804       66.41460      105.37868
H         36.86725       65.97431      106.51102
H         36.79347       69.77414      104.41619
H         37.29419       68.34034      103.45379
H         35.60354       68.50399      104.07114
H         37.08671       66.07350      103.42430
H         38.42446       65.64049      104.55404
H         36.95830       64.61723      104.45892
N         39.73962       70.25695      105.17081
C         39.91129       71.70477      105.08718
C         38.91650       72.25763      104.08481
O         38.20992       71.48116      103.46170
C         41.34512       72.06258      104.64324
C         42.39943       71.57077      105.58712
O         42.54228       70.37553      105.79065
O         43.22604       72.45417      106.17894
H         40.14752       69.67552      104.42877
H         39.70399       72.17541      106.07372
H         41.43996       73.16688      104.57644
H         41.54697       71.63507      103.63788
N         38.78011       73.59780      103.88389
C         37.86080       74.12959      102.88510
C         38.28995       73.71433      101.47624
O         37.43972       73.18303      100.77665
C         37.64440       75.64855      103.05098
C         36.71406       76.20096      101.99181
C         35.41177       75.68878      101.82293
C         37.15314       77.23660      101.15033
C         34.57764       76.19636      100.82220
C         36.31196       77.74658      100.15791
C         35.02719       77.22460       99.99086
H         39.33119       74.25028      104.46200
H         36.85759       73.68705      103.07909
H         38.60346       76.19434      103.03364
H         37.19616       75.82968      104.05263
H         35.03969       74.89198      102.45357
H         38.14752       77.65022      101.26144
H         33.58238       75.79115      100.69000
H         36.65901       78.54523       99.51591
H         34.38018       77.61725       99.21739
N         39.56305       73.86030      100.97715
C         39.97439       73.38387       99.65654
C         39.78404       71.88878       99.39915
O         40.01363       71.46685       98.27449
C         41.48087       73.66806       99.61986
C         41.59798       74.88495      100.50065
C         40.65831       74.52810      101.64766
H         39.40963       73.98401       98.90787
H         42.02007       72.85356      100.16087
H         41.91265       73.75674       98.60040
H         42.63101       75.14282      100.81648
H         41.16371       75.74442       99.94052
H         41.12512       73.81782      102.35825
H         40.38404       75.47103      102.14758
N         39.39456       71.02918      100.38536
C         39.21954       69.59269      100.20297
C         37.74252       69.23897      100.14124
O         37.41526       68.22539       99.54048
C         39.88593       68.82060      101.36221
C         41.37832       69.15405      101.52127
C         41.99587       68.49210      102.72364
O         41.29687       67.62781      103.48486
O         43.14371       68.76525      103.03231
H         39.23097       71.39575      101.32450
H         39.67612       69.27613       99.23928
H         39.75915       67.72576      101.21163
H         39.36300       69.10218      102.30222
H         41.48866       70.24921      101.65941
H         41.93715       68.85127      100.61014
N         36.79385       70.02495      100.72949
C         35.37159       69.77224      100.65467
H         34.87524       70.65075      100.18924
H         35.13160       68.87354      100.05119
H         34.96799       69.63813      101.67955
H         37.07229       70.85169      101.26594
Ca        44.15018       67.19282      105.60887
O         40.91048       64.85410      105.45724
H         40.61482       65.76927      105.22907
H         40.61236       64.29596      104.69732
O         43.10922       65.16713      107.23361
H         44.05507       65.00673      106.98800
H         42.73576       64.26299      107.37003

Ca 1.0



