%chk=holoCaM-CaMKII.loop3.water2.frame26.chk
%nprocshared=20
%mem=10GB
%nosave
#b3lyp/svp scf=(tight,noincore,xqc) Test 
#IOP(5/87=12) Density=Current Pop=(MK,readradii) iop(6/33=2) iop(6/42=6)

holoCaM-CaMKII.loop3.water2.frame26 

   0  1 
C         27.95333       79.00593       36.31848
C         26.51065       79.39447       36.26284
O         25.69078       78.59788       35.82714
H         28.31096       79.05790       37.36703
H         28.09540       77.97276       35.93778
H         28.54457       79.70537       35.69244
N         26.12196       80.62320       36.70184
C         24.73138       81.05911       36.66653
C         24.25437       81.16555       35.21712
O         25.06870       81.06184       34.30911
C         24.60313       82.38184       37.46171
C         23.18803       82.78971       37.73119
O         22.80385       83.91052       37.46170
O         22.34323       81.93332       38.32375
H         26.84086       81.25141       37.09367
H         24.13146       80.28385       37.19504
H         25.16518       83.20077       36.96118
H         25.06916       82.22210       38.45669
N         22.93921       81.33846       34.92057
C         22.43433       81.39417       33.55022
C         22.36139       82.83959       33.08445
O         22.61103       83.11235       31.91946
C         21.04685       80.70814       33.49429
C         20.51563       80.47706       32.06775
C         19.15903       79.74843       32.10052
C         18.64979       79.42909       30.68608
N         17.35303       78.75091       30.73386
H         22.25967       81.40381       35.69336
H         23.09799       80.81082       32.87349
H         20.31505       81.31068       34.06691
H         21.13560       79.70983       33.97650
H         21.24806       79.85013       31.51374
H         20.39907       81.44668       31.53768
H         18.41379       80.38563       32.62528
H         19.26475       78.79254       32.65998
H         19.38455       78.77232       30.16861
H         18.54784       80.36994       30.10186
H         17.04025       78.53681       29.75926
H         17.43114       77.85389       31.26593
H         16.64053       79.36758       31.18726
N         21.98833       83.80879       33.96516
C         21.72358       85.20301       33.63213
C         22.59216       86.19038       34.42109
O         22.43996       87.38561       34.21472
C         20.22702       85.48256       33.90671
C         19.88720       85.39944       35.37983
O         19.47301       86.38620       35.95016
O         20.06996       84.26115       36.07852
H         21.84250       83.51676       34.93205
H         21.91390       85.37425       32.54955
H         19.60435       84.75577       33.34294
H         19.97978       86.49895       33.52482
N         23.51015       85.78102       35.34257
C         24.35921       86.68947       36.10199
C         23.66042       87.65595       37.05672
O         24.37530       88.48203       37.60668
H         23.67741       84.77829       35.46981
H         24.95278       87.28549       35.37781
H         25.07538       86.09098       36.70999
N         22.31514       87.65335       37.32180
C         21.69491       88.67202       38.18810
C         22.16474       88.61107       39.64020
O         21.81129       89.50251       40.39945
C         20.14570       88.64058       38.12385
C         19.52003       87.47019       38.84313
N         18.55168       87.64611       39.77023
O         19.88554       86.34534       38.58211
H         21.72169       86.95673       36.85908
H         21.99234       89.65755       37.76598
H         19.84232       88.63752       37.05728
H         19.74083       89.57403       38.56804
H         18.20528       88.58302       40.00325
H         18.12757       86.83405       40.24388
N         22.95250       87.59647       40.09832
C         23.46633       87.51305       41.45149
C         23.05460       86.23114       42.13865
O         23.61444       85.95515       43.19089
H         23.23303       86.83545       39.46650
H         23.16304       88.37650       42.08386
H         24.57479       87.52617       41.37873
N         22.06366       85.41974       41.64898
C         21.64655       84.19405       42.32186
C         21.49297       83.03218       41.29020
O         20.27405       83.22172       40.57770
C         20.30999       84.44348       43.06048
C         20.36124       85.61984       44.00484
C         19.76156       86.83000       43.61842
C         20.98012       85.53182       45.26382
C         19.77525       87.93330       44.46955
C         20.97699       86.63788       46.12571
C         20.37293       87.84213       45.72837
O         20.35513       88.91513       46.54447
H         21.52997       85.71404       40.81860
H         22.41113       83.90928       43.07862
H         19.96820       83.53704       43.60630
H         19.53849       84.66596       42.29589
H         19.28948       86.92292       42.64856
H         21.44412       84.60768       45.58630
H         19.31268       88.85792       44.14869
H         21.43896       86.55893       47.10203
H         20.73785       88.89646       47.43255
N         21.39610       81.75368       42.01573
C         21.30887       80.55375       41.16242
C         20.16322       79.72106       41.70004
O         20.12010       79.47997       42.89919
C         22.60594       79.67233       41.15909
C         23.91583       80.47418       40.95652
C         22.46509       78.59335       40.05491
C         25.17304       79.61268       41.13652
H         22.09324       81.64642       42.78822
H         21.08742       80.84551       40.11411
H         22.68661       79.18445       42.15536
H         23.98724       81.27639       41.71731
H         23.93216       80.94515       39.96042
H         21.54677       77.99325       40.18937
H         22.41477       79.07425       39.05213
H         23.30357       77.87291       40.05520
H         26.07839       80.24909       41.05929
H         25.16651       79.13433       42.13979
H         25.25605       78.82567       40.36150
N         19.23423       79.19419       40.85990
C         18.12747       78.35853       41.30661
C         18.36352       76.91553       40.90192
O         19.36854       76.62664       40.27626
C         16.81695       78.91226       40.72511
O         16.85989       78.88153       39.32315
H         19.35190       79.33915       39.85042
H         18.05265       78.36834       42.41538
H         16.69823       79.96085       41.08322
H         15.95086       78.31348       41.07682
H         16.18367       79.53269       39.00200
N         17.48735       75.94093       41.26970
C         17.65392       74.53297       40.91557
C         17.59927       74.33711       39.41262
O         18.48354       73.69513       38.86419
C         16.56228       73.68940       41.57925
H         16.67159       76.21319       41.83900
H         18.62813       74.15984       41.30668
H         16.70491       72.61683       41.32538
H         16.62860       73.79534       42.68329
H         15.55254       74.00934       41.24688
N         16.58564       74.88323       38.68319
C         16.46513       74.75139       37.23346
C         17.71332       75.25059       36.52731
O         18.29032       74.50702       35.74651
C         15.24083       75.53187       36.73839
H         15.87599       75.43803       39.18720
H         16.30742       73.68014       36.97563
H         15.12933       75.41663       35.63935
H         14.32146       75.14270       37.22586
H         15.33607       76.61302       36.97803
N         18.20545       76.49311       36.78813
C         19.42198       77.03105       36.17705
C         20.61502       76.11868       36.42285
O         21.42569       75.95136       35.52273
C         19.72610       78.44754       36.71721
C         18.63523       79.45781       36.31615
C         18.91214       80.82816       36.85896
O         19.03981       81.77051       36.09942
O         18.96966       81.04008       38.18461
H         17.70434       77.06297       37.48477
H         19.28033       77.11528       35.07585
H         20.69342       78.80207       36.29650
H         19.82974       78.39942       37.82105
H         17.64297       79.14668       36.69574
H         18.58088       79.50390       35.20635
N         20.76688       75.46698       37.60530
C         21.86221       74.56350       37.87061
H         22.82480       75.10543       37.79653
H         21.76418       74.14648       38.89467
H         21.84463       73.72323       37.14701
H         20.06369       75.59305       38.33529
Ca        20.19595       83.76936       38.32150
O         17.52369       83.36019       40.03429
H         17.66626       84.16795       40.58603
H         17.53748       82.60848       40.67527
O         17.27057       84.91548       37.62315
H         16.28939       84.86672       37.73277
H         17.41298       84.83528       36.64850

Ca 1.0



