%chk=holoCaM-CaMKII.loop2.water2.frame357.chk
%nprocshared=20
%mem=10GB
%nosave
#b3lyp/svp scf=(tight,noincore,xqc) Test 
#IOP(5/87=12) Density=Current Pop=(MK,readradii) iop(6/33=2) iop(6/42=6)

holoCaM-CaMKII.loop2.water2.frame357 

   -2  1 
C         55.64399       51.41770       34.53517
C         56.59067       51.65552       35.68393
O         57.71046       51.16939       35.64564
H         54.66949       51.92841       34.69739
H         56.08296       51.81689       33.59605
H         55.44967       50.33233       34.41484
N         56.20038       52.42256       36.73768
C         57.05649       52.78287       37.86698
C         57.49286       51.58339       38.69077
O         56.64083       50.88871       39.22680
C         56.28299       53.77239       38.76910
C         56.97630       54.19397       40.03886
O         58.19144       54.77676       40.04850
O         56.40556       54.02314       41.10394
H         55.24611       52.81492       36.70730
H         57.94822       53.30096       37.46795
H         55.31250       53.30692       39.05157
H         56.04703       54.68183       38.18725
N         58.82309       51.33616       38.89172
C         59.32764       50.31325       39.80233
C         60.19437       50.90121       40.92600
O         60.61101       50.12739       41.77690
C         60.13794       49.28330       39.00579
H         59.51395       51.91546       38.39502
H         58.48087       49.77960       40.28524
H         59.50407       48.82610       38.21635
H         61.01642       49.76425       38.52308
H         60.49911       48.46991       39.67179
N         60.54484       52.22620       40.98560
C         61.45865       52.78150       41.99075
C         60.89486       54.00086       42.74460
O         61.62077       54.56578       43.55089
C         62.82057       53.07324       41.32041
C         62.74273       53.98629       40.13217
O         62.29184       55.23883       40.27043
O         63.10749       53.59820       39.03409
H         60.22863       52.86621       40.24721
H         61.68533       52.02669       42.77513
H         63.24684       52.10298       40.98075
H         63.52414       53.50052       42.06699
N         59.60370       54.41878       42.60090
C         58.98646       55.48208       43.39586
C         59.48498       56.91190       43.18442
O         59.02465       57.77300       43.92109
H         58.98618       53.87245       41.99519
H         59.12248       55.22335       44.46829
H         57.89304       55.49041       43.19459
N         60.41352       57.25970       42.24803
C         61.00862       58.60310       42.17315
C         60.16074       59.67127       41.46141
O         60.66679       60.76555       41.25147
C         62.44274       58.52219       41.60212
C         62.58116       58.12678       40.15789
N         63.81887       58.03458       39.62379
O         61.60300       57.88197       39.46893
H         60.80366       56.51488       41.66187
H         61.18385       58.96331       43.21150
H         63.01528       57.79055       42.21431
H         62.93015       59.51391       41.72259
H         64.65492       58.22657       40.19460
H         63.94714       57.76919       38.64237
N         58.86141       59.45973       41.11019
C         58.00781       60.46575       40.48063
C         58.28075       60.73758       39.00603
O         57.52105       61.50456       38.42915
H         58.41568       58.57782       41.38475
H         58.04836       61.41360       41.06182
H         56.96102       60.09532       40.52661
N         59.31121       60.16406       38.32112
C         59.56147       60.36835       36.89203
C         59.64317       59.03094       36.15894
O         59.55796       57.98742       36.79083
C         60.87362       61.17656       36.70434
C         60.71446       62.61224       37.21079
O         61.94087       60.56591       37.38411
H         59.96657       59.56087       38.82897
H         58.73435       60.94332       36.41798
H         61.12617       61.27684       35.62493
H         62.20177       59.76685       36.85724
H         59.90196       63.12458       36.65009
H         60.47396       62.63276       38.29379
H         61.65620       63.17729       37.04358
N         59.85556       58.99843       34.81190
C         60.03822       57.77930       34.02953
C         61.50600       57.65373       33.67546
O         62.09122       58.57664       33.12365
C         59.08529       57.75832       32.78579
C         57.66234       57.35415       33.25954
C         59.58185       56.78224       31.69417
C         56.58504       57.35032       32.17436
H         59.96087       59.89370       34.30956
H         59.80357       56.87918       34.63240
H         59.07146       58.76969       32.32215
H         57.33203       58.04667       34.06290
H         57.70632       56.32335       33.67540
H         58.92594       56.80413       30.80169
H         60.58344       57.08631       31.32372
H         59.64044       55.74567       32.08150
H         55.61873       57.04204       32.62870
H         56.47053       58.36263       31.73756
H         56.80979       56.61696       31.37359
N         62.14193       56.47639       33.94026
C         63.53735       56.19525       33.64821
C         63.61270       55.23659       32.48074
O         62.57541       54.87839       31.94287
C         64.20832       55.58581       34.89494
C         64.14008       56.51177       36.07200
O         62.94522       56.87810       36.57616
O         65.16747       56.91980       36.58905
H         61.59264       55.69594       34.33104
H         64.07451       57.12310       33.35034
H         65.27316       55.35933       34.67546
H         63.70251       54.63335       35.16911
N         64.80915       54.82151       31.98421
C         64.90431       53.99435       30.78967
C         64.29728       52.60210       30.98176
O         63.51731       52.21553       30.12320
C         66.35144       53.92525       30.25787
C         66.38496       53.44817       28.82477
C         65.78086       54.22327       27.81457
C         67.02382       52.24848       28.47565
C         65.81182       53.80290       26.48456
C         67.05130       51.83052       27.14018
C         66.44636       52.60678       26.14660
H         65.67650       55.17113       32.42047
H         64.32165       54.52641       30.00552
H         66.97975       53.28699       30.90623
H         66.79804       54.94328       30.26341
H         65.29067       55.15942       28.05287
H         67.49636       51.63717       29.23382
H         65.34569       54.40803       25.71712
H         67.54325       50.90480       26.87409
H         66.47059       52.28420       25.11414
N         64.55607       51.79310       32.06977
C         63.97399       50.45883       32.26448
C         62.45228       50.41032       32.34478
O         61.90383       49.32756       32.50201
C         64.52872       50.01164       33.62534
C         65.84937       50.73868       33.68799
C         65.46123       52.11226       33.15378
H         64.34577       49.81059       31.44062
H         63.90595       50.44861       34.44271
H         64.56821       48.91048       33.77084
H         66.32716       50.75232       34.69044
H         66.54036       50.25720       32.95929
H         64.90173       52.69538       33.91916
H         66.37719       52.65009       32.85757
N         61.71288       51.54740       32.27990
C         60.27654       51.62892       32.43248
C         59.66705       52.00141       31.09654
O         58.77478       51.30611       30.63292
C         59.96416       52.70452       33.48284
C         60.69791       52.46315       34.81475
C         60.38702       53.54385       35.80059
O         60.93063       53.51799       37.02264
O         59.59336       54.42942       35.53018
H         62.18461       52.44533       32.16666
H         59.84634       50.66018       32.77466
H         58.86497       52.74750       33.64800
H         60.29791       53.69416       33.10292
H         61.79772       52.45365       34.65793
H         60.39188       51.48595       35.24641
N         60.14121       53.06952       30.39498
C         59.64498       53.43759       29.09135
H         58.57948       53.73488       29.16213
H         60.23437       54.29549       28.69949
H         59.76101       52.58493       28.38936
H         60.91015       53.63000       30.77585
Ca        59.72181       54.76400       38.42379
O         57.20943       55.87362       36.44642
H         56.38071       56.18096       36.00342
H         57.93755       56.30299       35.94089
O         58.13752       57.34164       39.23141
H         57.45383       57.17245       39.92667
H         57.60743       57.52431       38.41937

Ca 1.0



