%chk=holoCaM-CaMKII.loop1.water2.frame324.chk
%nprocshared=20
%mem=10GB
%nosave
#b3lyp/svp scf=(tight,noincore,xqc) Test 
#IOP(5/87=12) Density=Current Pop=(MK,readradii) iop(6/33=2) iop(6/42=6)

holoCaM-CaMKII.loop1.water2.frame324 

   0  1 
C         42.40283       42.61808       72.64276
C         42.26386       41.12535       72.74530
O         41.14590       40.64418       72.70065
H         43.46612       42.93682       72.68488
H         41.97290       42.96330       71.67892
H         41.85695       43.10230       73.47930
N         43.36825       40.33568       72.86183
C         43.36590       38.87022       72.94222
C         42.69437       38.39487       74.23669
O         43.37992       38.14997       75.21946
C         44.84136       38.40453       72.82640
C         45.17318       36.93913       72.81608
O         44.27003       35.94637       72.90356
O         46.35274       36.64301       72.80476
H         44.28166       40.81826       72.86213
H         42.83577       38.44818       72.06434
H         45.40703       38.85504       73.67203
H         45.26564       38.80613       71.88915
N         41.33702       38.24055       74.29820
C         40.60376       37.78673       75.48090
C         40.84788       36.31265       75.82686
O         40.28538       35.86057       76.81512
C         39.07353       37.93557       75.26115
C         38.53983       39.35721       75.00674
C         38.83611       40.32490       76.16379
C         37.98639       41.60784       76.10507
N         38.20734       42.39061       74.88915
H         40.78881       38.47641       73.46742
H         40.90078       38.41442       76.34840
H         38.54378       37.55909       76.16433
H         38.76857       37.29466       74.40344
H         37.43694       39.25441       74.90482
H         38.93111       39.76835       74.05344
H         39.91885       40.57650       76.17572
H         38.58150       39.82683       77.12439
H         38.23624       42.23284       76.99101
H         36.90930       41.33594       76.17715
H         39.21304       42.66400       74.81138
H         37.91184       41.85163       74.04432
H         37.62209       43.25624       74.94012
N         41.63530       35.49654       75.06928
C         41.80668       34.06603       75.32011
C         43.22936       33.74873       75.76334
O         43.49917       32.59095       76.05372
C         41.54274       33.26538       74.02038
C         40.27241       33.61980       73.29766
O         40.34723       34.33751       72.15429
O         39.18563       33.28858       73.74312
H         42.13508       35.89576       74.27659
H         41.10682       33.73079       76.11604
H         41.57155       32.16938       74.20757
H         42.37787       33.47983       73.32494
N         44.20832       34.70299       75.80265
C         45.58859       34.41166       76.15250
C         46.32369       33.54388       75.13806
O         47.47527       33.22455       75.39652
H         43.98706       35.68345       75.58916
H         45.60852       33.93161       77.15322
H         46.14931       35.37020       76.22037
N         45.75347       33.13508       73.96455
C         46.42967       32.29422       72.97261
C         47.57959       32.99017       72.22091
O         48.13522       32.37133       71.32385
C         45.38504       31.68590       71.99755
C         44.59458       32.65341       71.15998
O         43.63576       32.17675       70.34565
O         44.78775       33.85438       71.21657
H         44.77734       33.39142       73.77626
H         46.85753       31.41106       73.49709
H         44.65441       31.10680       72.60423
H         45.89152       30.97087       71.31412
N         48.03064       34.23749       72.55111
C         49.15767       34.89817       71.90229
C         48.84668       35.50522       70.54475
O         49.74507       36.10919       69.97454
H         47.62949       34.72345       73.35671
H         50.01763       34.19600       71.83934
H         49.47285       35.74946       72.54375
N         47.61775       35.40973       69.96661
C         47.26660       35.99610       68.67625
C         46.04069       36.90006       68.79425
O         45.07241       36.54282       69.45338
C         47.03023       34.87843       67.62235
C         48.36357       34.28455       67.15977
O         46.23328       33.83250       68.11622
H         46.88585       34.87579       70.44831
H         48.09086       36.62655       68.27349
H         46.55722       35.31591       66.71373
H         45.45830       34.23486       68.57594
H         48.91038       33.82061       68.00661
H         48.18208       33.51330       66.38111
H         48.99921       35.07835       66.70911
N         45.99168       38.05428       68.06850
C         44.84423       38.95550       67.99464
C         44.21456       38.80131       66.62043
O         44.92165       38.86170       65.62154
C         45.28959       40.42665       68.26539
C         45.78377       40.56053       69.72595
C         44.13076       41.41444       67.99913
C         46.38363       41.92382       70.07350
H         46.79705       38.28033       67.46279
H         44.07378       38.69141       68.75380
H         46.12124       40.67604       67.56923
H         46.57221       39.80195       69.92020
H         44.92740       40.37455       70.40535
H         43.78653       41.34735       66.94692
H         43.27047       41.20371       68.67017
H         44.45284       42.46444       68.14144
H         46.72854       41.90993       71.12945
H         47.25321       42.13908       69.41815
H         45.63773       42.73820       69.98331
N         42.86594       38.63956       66.50459
C         42.16569       38.45650       65.23791
C         41.36898       39.69621       64.88257
O         41.36436       40.64949       65.64716
C         41.22338       37.22338       65.32490
C         41.98742       35.92211       65.59016
O         40.21726       37.42524       66.29019
H         42.29733       38.68923       67.36193
H         42.89375       38.29905       64.41174
H         40.71001       37.07966       64.35194
H         40.57985       37.17981       67.17972
H         42.71123       35.72809       64.77243
H         42.53636       35.98394       66.55268
H         41.26724       35.07699       65.63928
N         40.67640       39.75330       63.71354
C         39.83174       40.87613       63.31167
C         38.68760       41.07461       64.28868
O         38.46481       42.19829       64.71285
C         39.26009       40.66676       61.88648
C         40.36942       40.73568       60.82933
O         38.58551       39.43611       61.80546
H         40.74652       38.94299       63.07814
H         40.43147       41.81508       63.28469
H         38.54673       41.49891       61.67888
H         38.07565       39.43946       60.95398
H         41.12497       39.93803       60.98057
H         39.93063       40.62335       59.81564
H         40.87439       41.72464       60.87746
N         37.91887       40.02081       64.68571
C         36.77367       40.15811       65.58215
C         37.19431       40.82509       66.88469
O         36.58185       41.80268       67.29092
C         36.14307       38.76665       65.84381
C         34.72091       38.87589       66.41696
C         34.11330       37.49130       66.68879
C         32.62504       37.60625       67.05347
N         32.06651       36.30321       67.41447
H         38.16315       39.08225       64.33573
H         36.01195       40.78498       65.06812
H         36.80531       38.16145       66.50258
H         36.04315       38.22962       64.87427
H         34.09555       39.40606       65.66432
H         34.71810       39.46360       67.35991
H         34.67655       37.01223       67.51915
H         34.19833       36.84906       65.78422
H         32.07005       38.01438       66.17792
H         32.49305       38.30567       67.90762
H         31.04248       36.40895       67.59905
H         32.20135       35.61696       66.63688
H         32.52928       35.94886       68.28297
N         38.28308       40.36440       67.55611
C         38.79997       40.94211       68.79568
C         39.18371       42.40377       68.63446
O         38.87506       43.18949       69.51914
C         40.00696       40.12751       69.30311
C         39.56229       38.69673       69.64559
C         40.65548       37.88267       70.23746
O         41.68785       37.65995       69.62571
O         40.45834       37.33967       71.44548
H         38.78441       39.56621       67.13872
H         38.02152       40.88143       69.58910
H         40.40341       40.60470       70.22474
H         40.81940       40.11836       68.54399
H         39.18845       38.16242       68.75380
H         38.73388       38.74355       70.38547
N         39.83388       42.84271       67.52302
C         40.22321       44.22084       67.30368
H         41.31518       44.26609       67.10896
H         39.68609       44.61738       66.41599
H         39.99393       44.87036       68.17379
H         40.03679       42.17669       66.77440
Ca        42.27147       35.53450       71.94045
O         43.03143       33.85953       68.03749
H         43.60326       33.06924       67.87309
H         42.24564       33.70523       67.45911
O         40.28111       34.84704       68.95245
H         39.64967       35.19128       69.63201
H         40.22265       33.86233       69.03695

Ca 1.0



