%chk=holoCaM.loop2.water2.frame413.chk
%nprocshared=20
%mem=10GB
%nosave
#b3lyp/svp scf=(tight,noincore,xqc) Test 
#IOP(5/87=12) Density=Current Pop=(MK,readradii) iop(6/33=2) iop(6/42=6)

holoCaM.loop2.water2.frame413 

   -2  1 
C         90.49081      102.43529       31.95827
C         91.71278      103.29228       32.08852
O         92.50187      103.09315       33.00093
H         89.58305      103.07330       31.99756
H         90.51849      101.90778       30.98038
H         90.44411      101.68186       32.77127
N         91.93723      104.26804       31.17183
C         93.12328      105.11109       31.16899
C         93.22211      105.96677       32.43390
O         92.38447      106.83009       32.65267
C         93.12008      105.93928       29.87664
C         94.23737      106.90902       29.82465
O         93.98723      108.08273       29.63345
O         95.50473      106.50335       30.00150
H         91.24524      104.37732       30.41252
H         94.00899      104.44989       31.12273
H         92.16258      106.49774       29.77806
H         93.21048      105.24525       29.01195
N         94.22692      105.72975       33.33123
C         94.35546      106.40240       34.62104
C         94.96784      107.79816       34.55518
O         94.92917      108.47653       35.57262
C         95.25281      105.55533       35.54189
H         94.85536      104.93871       33.14384
H         93.34741      106.45188       35.08791
H         95.33170      106.00757       36.55322
H         94.83610      104.53126       35.64948
H         96.27675      105.47108       35.11165
N         95.65917      108.24759       33.46672
C         96.42676      109.50005       33.47316
C         96.07444      110.43734       32.32461
O         96.70774      111.47745       32.20317
C         97.93122      109.15995       33.49219
C         98.37029      108.29595       32.34846
O         98.28516      108.69566       31.19993
O         98.87420      107.07282       32.59750
H         95.73902      107.63550       32.64086
H         96.24019      110.07918       34.40334
H         98.14235      108.61352       34.43717
H         98.53769      110.09129       33.50189
N         95.06261      110.16241       31.46287
C         94.68645      111.03252       30.36397
C         95.76584      111.15919       29.30907
O         96.08793      112.27839       28.93707
H         94.49712      109.31751       31.60851
H         94.39000      112.03286       30.74936
H         93.79229      110.60077       29.86537
N         96.30966      110.04650       28.73123
C         97.18118      110.08566       27.55416
C         96.49281      109.45488       26.34378
O         96.90132      109.73868       25.22620
C         98.56143      109.42861       27.80975
C         98.53289      107.88507       27.82932
N         99.86408      107.32875       28.01900
O         97.64878      107.40727       28.79823
H         96.04446      109.14021       29.12213
H         97.36885      111.15179       27.29998
H         99.00168      109.83325       28.74669
H         99.23068      109.71716       26.97011
H        100.47538      107.66741       27.24136
H         99.78614      106.29691       27.88876
N         95.46751      108.56183       26.49241
C         94.73424      107.94820       25.40441
C         94.93473      106.44494       25.34083
O         94.21886      105.81100       24.58235
H         95.16696      108.27109       27.42711
H         95.00988      108.37691       24.41740
H         93.65675      108.16254       25.57593
N         95.93460      105.81502       26.03417
C         96.23116      104.38564       25.89536
C         96.35470      103.71373       27.26293
O         96.28699      104.40302       28.26710
C         97.54361      104.22916       25.08955
C         97.42608      104.87954       23.70201
O         98.60546      104.82378       25.79024
H         96.57780      106.37612       26.60505
H         95.41713      103.87499       25.33714
H         97.74175      103.14126       24.95558
H         99.44565      104.48846       25.38151
H         97.26604      105.97607       23.79038
H         98.36182      104.72017       23.12694
H         96.58052      104.43688       23.13481
N         96.53670      102.35608       27.37106
C         96.71815      101.67964       28.65891
C         98.02786      100.88675       28.70025
O         98.21996       99.96432       27.92420
C         95.49056      100.79809       29.05402
C         95.15061       99.67218       28.04585
C         94.27421      101.70368       29.32572
C         94.09849       98.69804       28.58459
H         96.53955      101.78406       26.51534
H         96.78992      102.43616       29.46482
H         95.74724      100.30999       30.01618
H         96.04633       99.05420       27.85241
H         94.80697      100.10395       27.08220
H         94.53943      102.46798       30.08246
H         93.94373      102.21725       28.39905
H         93.42435      101.13493       29.75099
H         93.12203       99.19128       28.75684
H         93.93926       97.87833       27.85409
H         94.45481       98.25145       29.53633
N         98.97447      101.20313       29.63246
C        100.20961      100.45074       29.86514
C         99.85615       99.08776       30.49247
O         98.67922       98.81817       30.66492
C        101.10812      101.30401       30.81084
C        102.57811      100.96721       30.86205
O        103.37259      101.65238       31.70598
O        103.08205      100.16313       30.09549
H         98.79656      102.01842       30.22597
H        100.74002      100.33774       28.89433
H        100.66796      101.29169       31.83125
H        101.09716      102.35826       30.46178
N        100.79874       98.18162       30.87744
C        100.48737       96.90087       31.51277
C         99.73099       97.04886       32.84049
O         98.68995       96.41748       32.95229
C        101.77838       96.07121       31.69982
C        101.52528       94.69407       32.27501
C        100.70332       93.77133       31.60087
C        102.12598       94.31335       33.48803
C        100.48589       92.49675       32.13397
C        101.90864       93.03613       34.01478
C        101.08905       92.12893       33.33895
H        101.78570       98.38975       30.70914
H         99.84233       96.32528       30.81182
H        102.48868       96.62961       32.34151
H        102.26541       95.94242       30.70896
H        100.23200       94.03315       30.66258
H        102.76644       95.00162       34.02512
H         99.85206       91.79218       31.61073
H        102.37798       92.74858       34.94672
H        100.92316       91.14038       33.74775
N        100.14987       97.82632       33.89441
C         99.43243       97.90641       35.16405
C         98.05948       98.52895       34.98982
O         97.13026       98.08175       35.64892
C        100.37233       98.71827       36.06171
C        101.06425       99.63244       35.08079
C        101.31528       98.69107       33.90082
H         99.30699       96.90877       35.64310
H         99.89364       99.20181       36.94068
H        101.16131       98.02713       36.43844
H        100.33062      100.41169       34.78247
H        101.97019      100.14922       35.46094
H        101.41341       99.31833       32.99740
H        102.22150       98.07173       34.06088
N         97.83494       99.49574       34.05652
C         96.51084      100.02720       33.75855
C         95.58894       98.88180       33.35230
O         94.53399       98.72671       33.95149
C         96.60207      101.10901       32.65516
C         97.38437      102.35830       33.12397
C         97.40820      103.44095       32.07474
O         96.36142      103.87422       31.63199
O         98.56738      103.96085       31.61914
H         98.62731       99.82071       33.48578
H         96.08259      100.51411       34.66374
H         95.56804      101.42528       32.39211
H         97.08889      100.68465       31.75519
H         98.42787      102.09312       33.39377
H         96.88358      102.76919       34.02719
N         95.96514       97.99145       32.39468
C         95.18019       96.82580       32.05052
H         94.19438       97.12917       31.64503
H         95.71775       96.22387       31.28493
H         95.03363       96.18841       32.94896
H         96.86653       98.11240       31.92697
Ca        98.40483      105.68483       30.13143
O        101.28456      106.39412       30.71014
H        101.02209      105.81755       31.47092
H        101.45040      105.76036       29.96808
O        100.00933      103.77367       28.57261
H         99.22614      103.59430       27.99589
H        100.72605      104.04848       27.94903

Ca 1.0



