%chk=holoCaM.loop1.water2.frame253.chk
%nprocshared=20
%mem=10GB
%nosave
#b3lyp/svp scf=(tight,noincore,xqc) Test 
#IOP(5/87=12) Density=Current Pop=(MK,readradii) iop(6/33=2) iop(6/42=6)

holoCaM.loop1.water2.frame253 

   0  1 
C         61.21013       99.19684       55.56276
C         60.89448       99.74326       54.20182
O         61.75948      100.35593       53.59449
H         61.50229      100.02814       56.23691
H         60.33387       98.67563       56.00396
H         62.04762       98.47195       55.48666
N         59.67131       99.53719       53.64450
C         59.31698      100.01753       52.31592
C         59.24342      101.54185       52.30558
O         58.44075      102.09708       53.04276
C         57.96604       99.39973       51.90685
C         57.56461       99.67341       50.49147
O         58.26847      100.32260       49.73595
O         56.41238       99.15602       50.04513
H         58.98138       98.98009       54.17360
H         60.08164       99.64372       51.59689
H         57.16449       99.76144       52.58709
H         58.03365       98.29441       52.00898
N         60.06075      102.27770       51.49671
C         60.07176      103.73787       51.45229
C         59.70264      104.31839       50.09463
O         59.62295      105.53691       50.01146
C         61.45613      104.25461       51.90449
C         61.73593      104.03263       53.40419
C         60.73471      104.81328       54.27514
C         61.07391      104.77579       55.76358
N         60.07720      105.53635       56.52043
H         60.73400      101.78216       50.90639
H         59.28643      104.15006       52.11013
H         61.52939      105.34943       51.72562
H         62.24799      103.76626       51.29287
H         62.76025      104.41297       53.61032
H         61.71079      102.95303       53.65961
H         59.71746      104.39029       54.16202
H         60.72604      105.87591       53.94716
H         62.07989      105.22205       55.92488
H         61.08701      103.72253       56.12106
H         60.32730      105.52666       57.53448
H         60.05091      106.52823       56.18713
H         59.13042      105.10683       56.39988
N         59.39612      103.54812       49.01418
C         58.87055      104.10613       47.76801
C         57.42638      103.66036       47.52617
O         56.85943      104.04790       46.51415
C         59.83111      103.82150       46.59685
C         60.21191      102.38051       46.45624
O         59.27448      101.44906       46.22158
O         61.38353      102.05158       46.55002
H         59.47715      102.52422       49.08116
H         58.80348      105.21477       47.82027
H         60.76064      104.40849       46.77087
H         59.38411      104.18424       45.64585
N         56.73275      102.93589       48.45428
C         55.31391      102.63465       48.35260
C         54.97822      101.73672       47.18963
O         54.12591      102.08329       46.38531
H         57.19342      102.63661       49.32408
H         54.73240      103.58025       48.30145
H         55.00443      102.10056       49.27911
N         55.59588      100.53445       47.07702
C         55.26747       99.51613       46.08307
C         54.84709       98.21310       46.76613
O         54.75446       97.19367       46.09655
C         56.44133       99.32899       45.09185
C         57.77242       98.95366       45.68034
O         57.93714       98.80929       47.00479
O         58.73844       98.84225       44.94298
H         56.32433      100.32129       47.76949
H         54.40933       99.83362       45.45098
H         56.58448      100.29483       44.55877
H         56.15934       98.56603       44.33463
N         54.51042       98.18942       48.09093
C         54.07475       97.00227       48.80897
C         55.15971       95.97255       49.06716
O         54.83228       94.97125       49.69133
H         54.47891       99.07095       48.61868
H         53.22682       96.53421       48.26321
H         53.69906       97.31769       49.80686
N         56.44579       96.10826       48.62464
C         57.46923       95.08088       48.81918
C         58.74660       95.64613       49.43276
O         58.84888       96.85006       49.62987
C         57.75609       94.37434       47.47146
C         56.51694       93.63617       46.94142
O         58.24129       95.27794       46.51089
H         56.70417       96.93885       48.07929
H         57.10248       94.30407       49.52682
H         58.53457       93.59850       47.62940
H         57.48828       95.84739       46.20480
H         56.76835       93.10954       45.99749
H         56.17196       92.88660       47.68526
H         55.68554       94.34412       46.73801
N         59.74695       94.79897       49.81538
C         60.98865       95.20846       50.47328
C         62.17565       94.58919       49.72402
O         62.13918       93.39389       49.45719
C         60.96394       94.74411       51.96372
C         59.67451       95.24406       52.67848
C         62.21805       95.26371       52.70207
C         59.48504       94.66922       54.08428
H         59.58903       93.78459       49.70119
H         61.07982       96.31811       50.49047
H         60.95805       93.63170       51.98216
H         58.78151       94.91656       52.10693
H         59.66519       96.35557       52.72379
H         62.25293       94.90728       53.75012
H         63.14622       94.90518       52.21519
H         62.23078       96.37655       52.70838
H         58.51847       95.02647       54.49934
H         59.45531       93.55922       54.03908
H         60.28684       94.98964       54.77737
N         63.28522       95.32006       49.40843
C         64.45414       94.78493       48.70102
C         65.63590       94.64621       49.64684
O         65.50505       94.95597       50.81896
C         64.84685       95.70166       47.50454
C         63.73422       95.83764       46.46500
O         65.27581       96.96476       47.95151
H         63.33116       96.28998       49.73716
H         64.23799       93.76748       48.30739
H         65.70086       95.24966       46.96030
H         64.47644       97.52815       48.10393
H         63.45540       94.84195       46.06246
H         62.85226       96.31334       46.92994
H         64.08308       96.47934       45.62695
N         66.83311       94.17707       49.19935
C         68.03447       94.08213       50.02840
C         68.44286       95.46901       50.51654
O         68.62449       95.66144       51.70943
C         69.18196       93.43515       49.20999
C         70.44731       93.22689       50.04837
O         68.75262       92.18433       48.73242
H         66.89932       93.88550       48.21187
H         67.82903       93.41817       50.89879
H         69.42427       94.10759       48.35163
H         69.18240       92.04423       47.84813
H         70.23210       92.55727       50.90855
H         71.23566       92.75700       49.42265
H         70.83806       94.19342       50.42861
N         68.56899       96.48662       49.61893
C         68.94895       97.86318       49.94261
C         68.07841       98.43772       51.04882
O         68.61246       98.91495       52.04063
C         68.83185       98.70406       48.64649
C         69.20155      100.18837       48.78397
C         69.06241      100.87561       47.41457
C         69.39153      102.37136       47.47562
N         69.25531      102.98397       46.15262
H         68.35119       96.26627       48.63459
H         70.00839       97.88314       50.28288
H         67.78705       98.63859       48.26821
H         69.50255       98.24861       47.88406
H         70.24802      100.28318       49.14658
H         68.52001      100.67950       49.51222
H         68.01819      100.75649       47.04904
H         69.74906      100.38511       46.68959
H         70.43388      102.51010       47.83821
H         68.69896      102.87503       48.18592
H         69.47808      104.00320       46.21893
H         69.91881      102.53698       45.47837
H         68.27538      102.87499       45.80255
N         66.72516       98.41328       50.94174
C         65.81488       98.96987       51.94172
C         66.01837       98.30278       53.29274
O         66.26346       99.00096       54.26670
C         64.35420       98.82800       51.45974
C         64.12304       99.66654       50.18367
C         62.74845       99.49870       49.61770
O         62.34163       98.39643       49.30109
O         61.98650      100.57546       49.37344
H         66.33225       97.96410       50.10310
H         66.01421      100.05858       52.06192
H         63.65802       99.18263       52.24788
H         64.13955       97.75520       51.27092
H         64.83316       99.37495       49.38889
H         64.29919      100.74044       50.40809
N         65.96598       96.95164       53.42062
C         66.18750       96.27328       54.67855
H         67.18965       96.53402       55.08144
H         65.40270       96.56108       55.40836
H         66.14763       95.17289       54.52539
H         65.78966       96.38224       52.59120
Ca        59.99927       98.75384       47.87852
O         62.62394       99.08822       45.90372
H         62.24639       99.65382       46.62157
H         62.73585       99.70415       45.13703
O         60.54669       96.73148       45.96793
H         60.91289       96.08929       45.31110
H         60.56697       96.24718       46.83257

Ca 1.0



