%chk=holoCaM-CaMKII.loop1.water2.frame206.chk
%nprocshared=20
%mem=10GB
%nosave
#b3lyp/svp scf=(tight,noincore,xqc) Test 
#IOP(5/87=12) Density=Current Pop=(MK,readradii) iop(6/33=2) iop(6/42=6)

holoCaM-CaMKII.loop1.water2.frame206 

   0  1 
C         20.47277       81.67222       46.82304
C         19.99389       82.31417       48.08887
O         20.60474       83.27772       48.52870
H         21.51543       81.31852       46.97086
H         19.84473       80.79787       46.55053
H         20.44676       82.40808       45.99433
N         18.91019       81.81629       48.74735
C         18.45471       82.34053       50.02830
C         19.58438       82.18028       51.03686
O         19.98188       81.05582       51.30767
C         17.16398       81.59942       50.43905
C         16.63652       81.98129       51.78216
O         16.34002       83.13463       52.03524
O         16.44299       81.02421       52.70324
H         18.41045       81.01482       48.33089
H         18.20454       83.41582       49.90349
H         17.34805       80.50336       50.44085
H         16.37627       81.81279       49.68449
N         20.20092       83.28151       51.56124
C         21.40959       83.23844       52.36947
C         21.17232       83.72621       53.79905
O         22.08717       83.59608       54.59962
C         22.51020       84.01416       51.59761
C         23.92631       83.99825       52.20464
C         24.49111       82.59297       52.49499
C         24.57653       81.64489       51.28344
N         25.51998       82.11553       50.26922
H         19.85639       84.20948       51.31188
H         21.73424       82.18296       52.46562
H         22.19725       85.07491       51.47193
H         22.57716       83.57823       50.57686
H         23.92075       84.57339       53.15343
H         24.60681       84.53847       51.51099
H         23.85749       82.10908       53.26543
H         25.50489       82.70434       52.93603
H         23.57372       81.49259       50.82916
H         24.92230       80.65480       51.65429
H         25.19360       83.01313       49.84685
H         26.46806       82.24087       50.69295
H         25.58626       81.39690       49.51212
N         19.95770       84.19499       54.22669
C         19.63411       84.38025       55.64443
C         18.58186       83.35632       56.08528
O         18.19360       83.37732       57.24444
C         19.27069       85.85176       55.96663
C         17.99476       86.36914       55.36927
O         17.15173       85.54420       54.73435
O         17.72839       87.55731       55.44958
H         19.19588       84.33141       53.54761
H         20.53032       84.17261       56.26842
H         20.11110       86.48101       55.59861
H         19.20402       85.99033       57.06767
N         18.14756       82.36871       55.23782
C         17.30382       81.25845       55.65115
C         15.83402       81.57800       55.84947
O         15.10568       80.65274       56.17981
H         18.52460       82.30479       54.28215
H         17.72866       80.80496       56.57115
H         17.35632       80.47213       54.87009
N         15.30655       82.82550       55.68215
C         13.89493       83.11300       55.94631
C         12.92338       82.40980       54.99738
O         11.75162       82.32688       55.33795
C         13.61691       84.63444       55.98799
C         13.91561       85.38765       54.71709
O         13.68440       86.71272       54.66833
O         14.38752       84.82877       53.74239
H         15.93247       83.59633       55.42952
H         13.68232       82.73014       56.96962
H         14.23621       85.08460       56.79266
H         12.54823       84.79478       56.24739
N         13.31669       81.91044       53.79158
C         12.43285       81.18616       52.88734
C         12.18272       81.91902       51.58527
O         11.61076       81.30939       50.69171
H         14.28731       82.04681       53.48598
H         11.44329       80.96999       53.34522
H         12.91520       80.20981       52.66609
N         12.52344       83.23021       51.41251
C         12.28779       83.97180       50.17712
C         13.58117       84.57399       49.64907
O         14.61169       84.49783       50.30397
C         11.20588       85.06268       50.38760
C          9.83257       84.45626       50.71204
O         11.59059       85.98853       51.37349
H         12.93937       83.74191       52.19659
H         11.91846       83.28271       49.38513
H         11.07145       85.62321       49.43794
H         11.49088       85.55709       52.26201
H          9.07997       85.26659       50.81495
H          9.51074       83.78202       49.88954
H          9.86387       83.87669       51.65852
N         13.59487       85.13177       48.40777
C         14.78677       85.63095       47.72997
C         14.53479       87.06661       47.27477
O         13.47433       87.34926       46.73341
C         15.11898       84.66067       46.55458
C         15.46694       83.25964       47.14205
C         16.28920       85.18718       45.70245
C         15.68281       82.16105       46.10334
H         12.71672       85.12565       47.86516
H         15.67532       85.62439       48.40181
H         14.22339       84.57785       45.89969
H         14.63650       82.90549       47.78702
H         16.38020       83.34033       47.77266
H         17.21157       85.26416       46.31292
H         16.48745       84.51972       44.84057
H         16.04968       86.18167       45.27559
H         16.54906       82.37691       45.44814
H         15.89256       81.20453       46.62952
H         14.76670       82.03284       45.48970
N         15.50760       88.01243       47.41661
C         15.37936       89.40932       47.01382
C         16.24310       89.66533       45.79544
O         16.94316       88.76893       45.35199
C         15.83779       90.36168       48.15986
C         15.02056       90.18735       49.44674
O         17.22295       90.21045       48.38943
H         16.42101       87.71115       47.76003
H         14.32609       89.63695       46.74107
H         15.67951       91.41410       47.84364
H         17.39558       89.85244       49.29681
H         15.37676       90.90996       50.21401
H         13.94443       90.37251       49.25517
H         15.15901       89.16534       49.84254
N         16.25671       90.88952       45.20666
C         17.15821       91.22577       44.10843
C         18.61362       91.14710       44.56550
O         19.46156       90.75153       43.77862
C         16.83932       92.62704       43.53692
C         15.43417       92.65577       42.91008
O         16.94134       93.59445       44.55082
H         15.62069       91.61318       45.57415
H         17.01183       90.49814       43.27766
H         17.58017       92.84703       42.73386
H         16.86025       94.48169       44.11294
H         15.36093       91.89772       42.10085
H         14.64608       92.44661       43.66300
H         15.23425       93.65380       42.46746
N         18.96340       91.49055       45.83931
C         20.32619       91.41966       46.36702
C         20.85981       89.99582       46.30127
O         21.91391       89.76819       45.72536
C         20.32745       91.93559       47.82720
C         21.73289       92.03650       48.43486
C         21.66690       92.63952       49.84524
C         23.06792       92.79646       50.44900
N         22.99904       93.39942       51.78010
H         18.21685       91.81807       46.47099
H         20.97833       92.09315       45.76847
H         19.69489       91.28335       48.46886
H         19.88007       92.95396       47.82902
H         22.35612       92.69274       47.78925
H         22.20062       91.02899       48.48356
H         21.05224       91.98502       50.50222
H         21.18606       93.64130       49.79174
H         23.68481       93.44527       49.78786
H         23.55651       91.79952       50.52017
H         22.43698       92.79449       52.42196
H         23.96707       93.49364       52.16385
H         22.56585       94.34998       51.72242
N         20.14951       88.98827       46.87144
C         20.54028       87.57917       46.88737
C         20.76871       87.06777       45.47741
O         21.86390       86.59858       45.19919
C         19.44262       86.78373       47.63181
C         19.49608       87.13477       49.13073
C         18.27012       86.76329       49.90220
O         17.26578       87.44516       49.85027
O         18.33485       85.79573       50.80667
H         19.25405       89.24821       47.30701
H         21.49794       87.45502       47.44362
H         19.57527       85.68403       47.52783
H         18.46759       87.05188       47.18165
H         19.64043       88.22046       49.30796
H         20.38350       86.61614       49.55740
N         19.80186       87.16319       44.52618
C         19.99212       86.75783       43.14797
H         21.00368       86.33853       42.96290
H         19.23693       85.99153       42.87881
H         19.86040       87.64215       42.48878
H         18.89518       87.56857       44.77698
Ca        16.96692       85.79225       52.54608
O         14.11561       87.49840       51.30400
H         13.47192       88.19914       51.57840
H         14.01089       86.78311       51.97697
O         16.52147       88.89591       52.61962
H         17.24922       89.52803       52.84485
H         16.12735       88.64671       53.49315

Ca 1.0



