%chk=holoCaM-CaMKII.loop4.water1.frame383.chk
%nprocshared=20
%mem=10GB
%nosave
#b3lyp/svp scf=(tight,noincore,xqc) Test 
#IOP(5/87=12) Density=Current Pop=(MK,readradii) iop(6/33=2) iop(6/42=6)

holoCaM-CaMKII.loop4.water1.frame383 

   -3  1 
C         75.73956       78.93636       71.84944
C         76.80249       79.98863       71.87185
O         77.57576       80.05793       70.92605
H         75.09670       79.09357       70.95704
H         76.21296       77.93519       71.78771
H         75.10314       78.98279       72.75714
N         76.88651       80.87760       72.90229
C         77.85588       81.96324       72.88319
C         79.28390       81.44236       73.01125
O         79.47284       80.28532       73.36160
C         77.50324       83.00761       73.95523
C         78.28050       84.26347       73.75292
O         78.91945       84.74456       74.66817
O         78.26931       84.85879       72.54323
H         76.19508       80.82556       73.66719
H         77.74075       82.45616       71.89082
H         77.63846       82.59979       74.98241
H         76.43427       83.28514       73.83846
N         80.33722       82.23454       72.65552
C         81.72064       81.77486       72.60588
C         82.61050       82.66394       73.46993
O         83.32306       82.13423       74.31077
C         82.21693       81.73862       71.12477
C         81.24185       80.89950       70.24745
C         83.64790       81.16652       71.06029
C         81.63110       80.81831       68.76927
H         80.14308       83.18211       72.31197
H         81.79660       80.73104       72.98559
H         82.24246       82.77335       70.72265
H         80.23407       81.36649       70.28155
H         81.15747       79.86603       70.64870
H         83.66429       80.11887       71.43061
H         84.04498       81.18929       70.02607
H         84.34527       81.77355       71.67298
H         80.84093       80.27311       68.20981
H         81.73639       81.83413       68.33849
H         82.57901       80.26130       68.62963
N         82.63324       84.02119       73.30867
C         83.56651       84.90327       74.01655
C         82.99749       85.49262       75.31079
O         83.68581       86.28059       75.94498
C         84.13028       85.96768       73.04465
C         83.12030       86.96252       72.55046
O         83.45889       87.83397       71.76606
O         81.84808       86.91152       72.97096
H         81.98485       84.44309       72.62898
H         84.45332       84.31193       74.33269
H         84.56706       85.44481       72.16561
H         84.94374       86.53147       73.54942
N         81.80219       85.07975       75.81900
C         81.31219       85.45394       77.13743
C         80.86899       86.89346       77.27342
O         81.36748       87.57900       78.15470
H         81.26221       84.36822       75.31086
H         82.08792       85.21148       77.89843
H         80.42192       84.83109       77.37101
N         79.86971       87.38942       76.48836
C         79.24247       88.69601       76.69830
C         77.73666       88.57015       76.99527
O         77.15940       89.56919       77.40334
C         79.53455       89.63938       75.50490
C         79.10001       89.03179       74.21309
O         79.98695       88.68638       73.27228
O         77.93865       88.72952       74.05032
H         79.51819       86.79823       75.72780
H         79.68175       89.17725       77.59862
H         80.62938       89.81663       75.45265
H         79.02550       90.61667       75.64558
N         77.02927       87.40657       76.82479
C         75.63032       87.23981       77.20837
C         74.67591       87.07513       76.03402
O         73.51968       86.77146       76.27516
H         77.48469       86.57627       76.42255
H         75.25912       88.09811       77.80846
H         75.56882       86.33882       77.85786
N         75.06697       87.33219       74.75137
C         74.17886       87.26872       73.58879
C         74.76093       86.35815       72.52545
O         75.86300       85.87894       72.69735
C         73.88650       88.70300       73.07524
C         75.07281       89.61948       72.69685
C         75.77344       89.27509       71.40146
N         75.72002       90.13165       70.35339
O         76.41096       88.24055       71.29551
H         76.02470       87.63087       74.59001
H         73.20082       86.83235       73.88320
H         73.36986       89.21591       73.91636
H         73.17099       88.67216       72.22594
H         75.79666       89.68929       73.52866
H         74.64837       90.63941       72.58404
H         75.20280       91.01990       70.41698
H         76.19324       89.91098       69.46760
N         74.04183       86.04678       71.40328
C         74.55469       85.16405       70.35518
C         74.40406       85.85544       69.00330
O         73.28483       86.13025       68.60082
C         73.78695       83.80982       70.39633
C         74.28082       82.83280       69.31788
C         73.94725       83.13319       71.76839
H         73.08366       86.40877       71.31233
H         75.62839       84.93511       70.52830
H         72.70434       84.00101       70.22786
H         73.70771       81.88243       69.36944
H         74.12587       83.25240       68.30827
H         75.35825       82.60255       69.45824
H         73.55581       83.77793       72.58212
H         73.38127       82.17802       71.79744
H         75.01717       82.91487       71.96622
N         75.50018       86.16194       68.24421
C         75.40004       86.75559       66.91012
C         74.82642       85.73571       65.93311
O         74.64434       84.58750       66.30069
C         76.79061       87.20069       66.36664
C         77.41437       88.38992       67.06532
N         77.90739       88.31538       68.32262
O         77.51437       89.44383       66.45373
H         76.42369       85.93949       68.61783
H         74.73950       87.64923       66.95067
H         76.65463       87.51499       65.30953
H         77.50519       86.35297       66.35886
H         77.89284       87.44643       68.86509
H         78.34324       89.14402       68.75333
N         74.55826       86.07753       64.64213
C         74.20083       85.09290       63.62422
C         75.35797       84.12539       63.43011
O         75.15778       82.92276       63.51971
C         73.88974       85.79670       62.28319
C         73.67962       84.80285       61.16042
C         72.63883       83.85929       61.21022
C         74.55382       84.80015       60.05960
C         72.48298       82.92620       60.17912
C         74.39584       83.86820       59.03178
C         73.36054       82.92543       59.08910
O         73.20267       82.01537       58.10690
H         74.66187       87.06508       64.36227
H         73.29004       84.53474       63.93729
H         74.73949       86.46642       62.02555
H         72.98677       86.43454       62.39655
H         71.95421       83.83881       62.04846
H         75.36685       85.51312       59.99999
H         71.68238       82.19899       60.22990
H         75.08274       83.87734       58.19486
H         73.79341       81.97871       57.34079
N         76.60203       84.60699       63.15440
C         77.77167       83.77100       62.90252
C         77.99306       82.75320       64.00937
O         78.16316       81.58163       63.70049
C         79.01814       84.65101       62.62906
C         79.47846       85.52613       63.80996
C         80.58288       86.45321       63.38806
O         81.79180       86.38094       63.97603
O         80.38291       87.29169       62.52271
H         76.71512       85.63080       63.11590
H         77.59434       83.20258       61.96161
H         78.76435       85.31154       61.76979
H         79.86632       84.00310       62.31589
H         79.84018       84.87763       64.63537
H         78.64543       86.15162       64.18736
N         77.93767       83.11365       65.32142
C         78.09520       82.15845       66.41588
C         77.03827       81.06853       66.32827
O         77.39327       79.89838       66.29634
C         78.03720       82.86108       67.79113
C         79.17202       83.89024       67.94668
C         79.23874       84.44830       69.33481
O         80.37332       84.34114       70.04712
O         78.28177       85.02500       69.81703
H         77.74412       84.10019       65.54180
H         79.09863       81.68118       66.34311
H         78.15561       82.08354       68.57914
H         77.05506       83.36260       67.93519
H         79.03228       84.73150       67.24042
H         80.14379       83.40851       67.71783
N         75.71849       81.38359       66.24313
C         74.68182       80.38262       66.11618
H         73.69225       80.87641       66.00383
H         74.86348       79.75678       65.21590
H         74.66041       79.74042       67.02090
H         75.44093       82.36962       66.23552
Ca        79.13765       86.89721       72.22981
O         80.54290       88.28850       69.95040
H         81.30985       87.67383       69.83549
H         80.95104       89.17611       70.11039

Ca 1.0



