%chk=holoCaM.loop4.water3.frame381.chk
%nprocshared=20
%mem=10GB
%nosave
#b3lyp/svp scf=(tight,noincore,xqc) Test 
#IOP(5/87=12) Density=Current Pop=(MK,readradii) iop(6/33=2) iop(6/42=6)

holoCaM.loop4.water3.frame381 

   -3  1 
C         85.91685       69.11122       80.29995
C         85.29608       67.89684       80.92581
O         84.12478       67.95759       81.26536
H         86.97172       68.92693       80.00965
H         85.34600       69.37676       79.38295
H         85.87650       69.96526       81.00673
N         86.00008       66.73393       81.05147
C         85.38864       65.48872       81.50048
C         86.29240       64.72920       82.47561
O         87.43975       64.48658       82.12628
C         85.15324       64.62052       80.24989
C         84.28110       63.43688       80.53147
O         84.07696       62.61028       79.65794
O         83.65345       63.32395       81.71483
H         86.96378       66.70002       80.68511
H         84.39649       65.69326       81.96133
H         86.13266       64.29054       79.84020
H         84.63366       65.21494       79.46708
N         85.82627       64.26139       83.67732
C         86.63861       63.44811       84.59910
C         86.07033       62.02585       84.80697
O         86.73629       61.22450       85.44584
C         86.78262       64.20693       85.96528
C         87.97624       63.67911       86.80574
C         85.46961       64.16350       86.78086
C         88.23732       64.49360       88.07760
H         84.85534       64.48078       83.93276
H         87.65264       63.33297       84.15983
H         87.01628       65.26748       85.72031
H         88.89456       63.74070       86.18248
H         87.82572       62.62225       87.10307
H         85.52242       64.81261       87.67667
H         84.61316       64.51606       86.18601
H         85.24949       63.12821       87.11643
H         87.39649       64.40654       88.79555
H         89.14466       64.10498       88.58578
H         88.40057       65.56354       87.82866
N         84.81513       61.67783       84.38637
C         84.12318       60.44699       84.80354
C         83.39079       59.69011       83.68621
O         82.87164       58.61912       83.96923
C         83.11912       60.81557       85.92621
C         82.08684       61.84862       85.51928
O         82.04015       62.30411       84.25018
O         81.33190       62.31198       86.35786
H         84.27590       62.39015       83.89799
H         84.85951       59.73674       85.24045
H         83.70850       61.24380       86.76616
H         82.60846       59.90542       86.30839
N         83.27885       60.17216       82.41781
C         82.59582       59.47936       81.33286
C         81.12039       59.20812       81.58705
O         80.73390       58.04917       81.53419
H         83.72313       61.06085       82.18537
H         83.12048       58.51825       81.13883
H         82.67453       60.09557       80.41121
N         80.23364       60.21693       81.84277
C         78.79378       59.99702       82.03675
C         77.91290       60.82078       81.08587
O         76.69952       60.76823       81.23544
C         78.40367       60.23261       83.51607
C         78.60100       61.61905       84.05775
O         79.07059       62.50684       83.37342
O         78.24985       61.88314       85.32952
H         80.60091       61.17423       81.92590
H         78.53692       58.93239       81.84448
H         78.99097       59.53459       84.14919
H         77.32852       59.97712       83.63927
N         78.42758       61.56866       80.06627
C         77.59944       62.34361       79.14534
C         76.97596       63.59778       79.74618
O         76.27378       64.28558       79.01662
H         79.43632       61.53729       79.88016
H         76.81113       61.68609       78.71827
H         78.23726       62.68939       78.30231
N         77.20894       63.98974       81.03160
C         76.70684       65.22838       81.62604
C         77.86915       66.12262       82.03403
O         79.01536       65.70437       81.91165
C         75.83058       64.90162       82.85408
C         74.51740       64.21517       82.45131
C         73.66411       63.91207       83.65822
N         73.25166       62.64877       83.91578
O         73.32719       64.82020       84.40401
H         77.80480       63.40420       81.62183
H         76.10419       65.80636       80.89066
H         75.56651       65.84227       83.38316
H         76.40528       64.25880       83.55914
H         74.73238       63.28038       81.89076
H         73.94699       64.89863       81.78560
H         73.50805       61.86958       83.29248
H         72.66042       62.44968       84.73663
N         77.64599       67.39334       82.49005
C         78.72042       68.31211       82.86300
C         78.53262       68.80340       84.29617
O         77.51672       69.41653       84.59748
C         78.83351       69.46847       81.82534
C         77.63262       70.43147       81.81250
C         80.13398       70.25948       82.03245
H         76.67323       67.73516       82.53756
H         79.68811       67.77142       82.80329
H         78.89924       68.99949       80.81781
H         77.75579       71.17607       80.99779
H         76.68380       69.88649       81.63407
H         77.55696       70.99897       82.76257
H         80.24262       71.03672       81.24654
H         80.14659       70.75151       83.02664
H         81.00959       69.57903       81.95672
N         79.47179       68.53930       85.24625
C         79.35134       68.96434       86.64058
C         79.71436       70.44142       86.79176
O         80.15851       71.04707       85.83002
C         80.28621       68.07061       87.49558
C         80.14439       68.22666       88.98682
N         78.96262       67.97898       89.59738
O         81.11324       68.55108       89.65620
H         80.28215       67.96533       84.97713
H         78.30355       68.78707       86.96678
H         81.34070       68.25013       87.18825
H         80.04738       67.01245       87.27917
H         78.13730       67.68780       89.05410
H         78.87477       68.07206       90.61972
N         79.55454       71.08763       87.98345
C         80.00216       72.46416       88.22531
C         81.51418       72.56496       88.40109
O         82.00792       73.67827       88.52042
C         79.28060       73.05329       89.46058
C         79.52817       72.25976       90.72591
C         78.49803       71.46341       91.25085
C         80.77299       72.28757       91.38264
C         78.71274       70.69029       92.39180
C         80.98272       71.51985       92.53093
C         79.95746       70.71374       93.03503
O         80.17788       69.96645       94.13439
H         79.08057       70.58055       88.74094
H         79.70123       73.09120       87.35609
H         78.19601       73.03824       89.21655
H         79.55464       74.11909       89.62452
H         77.53284       71.42256       90.76150
H         81.58421       72.90216       91.01749
H         77.91104       70.06952       92.76949
H         81.94559       71.54864       93.02582
H         79.49589       69.38849       94.50523
N         82.31102       71.45665       88.43591
C         83.75916       71.49793       88.58851
C         84.42028       71.19917       87.23826
O         85.63767       71.13288       87.15570
C         84.14220       70.49217       89.70379
C         85.53904       70.66494       90.32822
C         85.63257       71.89917       91.19282
O         85.54061       73.01546       90.70973
O         85.82343       71.77069       92.52057
H         81.89575       70.52765       88.29592
H         84.07077       72.51663       88.88427
H         84.03887       69.46419       89.28999
H         83.41792       70.57889       90.54495
H         86.33974       70.66060       89.56174
H         85.70686       69.79042       90.99464
N         83.64623       71.08516       86.11755
C         84.10972       70.88669       84.75820
C         83.79236       72.14544       83.96722
O         84.69913       72.72015       83.38184
C         83.38012       69.67153       84.15683
C         83.75240       68.36405       84.87626
C         82.96510       67.18552       84.37837
O         83.13344       65.98678       84.95653
O         82.15157       67.30203       83.47912
H         82.63126       71.18377       86.19907
H         85.20751       70.70846       84.71570
H         83.63453       69.58349       83.08201
H         82.28109       69.82866       84.23956
H         83.54462       68.46423       85.96176
H         84.83603       68.15855       84.73669
N         82.52935       72.66088       83.94407
C         82.19707       73.89183       83.26484
H         81.12656       74.13840       83.43925
H         82.81418       74.72392       83.66626
H         82.36759       73.78270       82.17490
H         81.77231       72.18944       84.45023
Ca        81.15235       64.24164       83.50467
O         81.88101       65.95758       80.37310
H         81.93891       66.45423       81.22316
H         81.19920       66.44771       79.85075
O         79.58390       65.20931       85.65700
H         80.39482       64.83599       86.08656
H         79.01645       64.42284       85.46673
O         81.05510       63.36987       80.10607
H         81.13250       63.34048       79.11999
H         81.55062       62.57084       80.41083

Ca 1.0



