%chk=holoCaM-CaMKII.loop1.water2.frame38.chk
%nprocshared=20
%mem=10GB
%nosave
#b3lyp/svp scf=(tight,noincore,xqc) Test 
#IOP(5/87=12) Density=Current Pop=(MK,readradii) iop(6/33=2) iop(6/42=6)

holoCaM-CaMKII.loop1.water2.frame38 

   0  1 
C         20.07094       70.90729      119.86551
C         20.00603       70.12485      121.14431
O         20.37551       68.96210      121.14493
H         19.70902       71.94802      120.00704
H         21.12057       70.94613      119.50680
H         19.43739       70.41660      119.09769
N         19.56040       70.70982      122.28743
C         19.47821       70.01267      123.56644
C         18.42650       68.90799      123.49212
O         17.27619       69.22923      123.22933
C         19.13964       71.05303      124.65823
C         19.17674       70.53948      126.06102
O         18.94198       71.39473      127.06861
O         19.44089       69.37734      126.30626
H         19.29370       71.70660      122.24683
H         20.47829       69.59249      123.80190
H         18.13733       71.49250      124.46377
H         19.89199       71.87001      124.60634
N         18.74729       67.58938      123.69222
C         17.77585       66.49912      123.54537
C         17.47675       65.74143      124.83800
O         16.58339       64.90591      124.79098
C         18.22410       65.52182      122.43658
C         18.34395       66.08870      121.00158
C         17.03149       66.36456      120.22628
C         16.26354       67.64728      120.59352
N         15.10166       67.82532      119.72198
H         19.72170       67.34439      123.92160
H         16.79259       66.90242      123.28828
H         17.53680       64.64947      122.38581
H         19.22570       65.13730      122.73396
H         18.84527       65.28024      120.42399
H         19.01509       66.96435      120.96496
H         16.36584       65.47733      120.29814
H         17.31978       66.48221      119.15807
H         16.94158       68.52294      120.48395
H         15.88565       67.61997      121.62274
H         14.60958       68.71034      119.98444
H         15.39869       67.88751      118.72165
H         14.43825       67.02555      119.84562
N         18.08416       66.01058      126.03143
C         17.58944       65.46745      127.30412
C         17.02112       66.57688      128.18634
O         16.55217       66.26939      129.27353
C         18.63989       64.60602      128.04666
C         19.95383       65.27718      128.31079
O         20.97853       64.69662      127.99043
O         20.02060       66.59374      128.56059
H         18.85179       66.69428      126.06042
H         16.73194       64.78238      127.12997
H         18.84274       63.70189      127.42915
H         18.21388       64.24508      129.00635
N         16.96416       67.87635      127.76885
C         16.34223       68.93641      128.53965
C         17.05265       69.19359      129.84371
O         16.42597       69.11634      130.89020
H         17.32003       68.14076      126.84170
H         15.27406       68.68544      128.71609
H         16.37535       69.87711      127.94602
N         18.36527       69.54754      129.84136
C         19.11625       69.92274      131.03536
C         19.59544       71.37391      130.94795
O         20.40020       71.78325      131.77325
C         20.26557       68.91435      131.28405
C         21.32099       68.78661      130.21662
O         22.33206       67.91778      130.40352
O         21.27532       69.43308      129.18489
H         18.84900       69.58475      128.93385
H         18.47737       69.86200      131.94338
H         19.81343       67.90857      131.42575
H         20.77526       69.18951      132.23253
N         19.09292       72.22996      130.00683
C         19.48435       73.62543      129.86480
C         20.86777       73.83528      129.27279
O         21.21483       74.98469      129.03964
H         18.33696       71.90945      129.38823
H         19.38646       74.14936      130.84016
H         18.77544       74.10499      129.15434
N         21.71110       72.80019      128.99824
C         23.03011       72.95450      128.39148
C         23.19240       72.05604      127.17267
O         22.33373       71.23294      126.88290
C         24.14471       72.67388      129.44216
C         24.40399       73.92013      130.28682
O         23.80902       71.61704      130.30739
H         21.42231       71.84837      129.23835
H         23.16169       73.98783      127.99905
H         25.11284       72.45079      128.94216
H         23.47113       70.86863      129.75891
H         25.20727       73.71141      131.02509
H         24.75231       74.74832      129.63076
H         23.48808       74.24092      130.82381
N         24.28118       72.23696      126.36956
C         24.53617       71.51981      125.12390
C         25.92379       70.88122      125.18006
O         26.84829       71.50085      125.68981
C         24.36858       72.50478      123.92539
C         22.89556       73.00997      123.88404
C         24.74028       71.82881      122.58939
C         22.61839       74.08743      122.83560
H         24.94550       72.98641      126.62084
H         23.79039       70.71860      124.97417
H         25.05146       73.36979      124.07866
H         22.62775       73.45971      124.86265
H         22.21218       72.15030      123.70329
H         25.79472       71.48742      122.60106
H         24.07964       70.95792      122.39219
H         24.66079       72.53938      121.74321
H         22.78003       73.71392      121.80546
H         21.55488       74.40107      122.91139
H         23.26154       74.97338      123.01970
N         26.14188       69.65031      124.62697
C         27.42811       68.94792      124.65274
C         28.00970       68.81467      123.25331
O         27.39425       69.25933      122.29786
C         27.25967       67.52500      125.26316
C         26.63705       67.53613      126.65635
O         26.52506       66.68244      124.40951
H         25.35587       69.19539      124.14659
H         28.16054       69.51353      125.26976
H         28.26327       67.06606      125.37852
H         25.57883       66.97258      124.43003
H         25.60670       67.93873      126.59625
H         26.58693       66.49686      127.04590
H         27.24373       68.15299      127.35047
N         29.20174       68.18144      123.06386
C         29.77635       67.90159      121.74964
C         28.86233       66.98680      120.94023
O         28.55964       67.31704      119.80282
C         31.18843       67.26923      121.87672
C         32.20168       68.27280      122.46666
O         31.14648       66.05950      122.60313
H         29.71458       67.86049      123.89794
H         29.90731       68.85440      121.18710
H         31.56145       67.03169      120.85634
H         31.51184       66.20247      123.51521
H         33.21004       67.81002      122.51089
H         32.26136       69.17614      121.82251
H         31.91275       68.58912      123.49079
N         28.37006       65.83071      121.47626
C         27.50763       64.89278      120.75199
C         26.28739       65.59405      120.18071
O         26.03318       65.48474      118.98940
C         27.06152       63.75095      121.70034
C         26.21007       62.69055      120.97972
C         25.74053       61.59200      121.94129
C         24.87741       60.55831      121.20245
N         24.38765       59.52818      122.11752
H         28.60765       65.61692      122.45705
H         28.08764       64.44265      119.91613
H         26.47733       64.17856      122.54593
H         27.96352       63.25514      122.12135
H         26.80945       62.23816      120.15962
H         25.30882       63.17041      120.54082
H         25.13728       62.05373      122.75388
H         26.62118       61.08523      122.39318
H         25.47782       60.08016      120.39651
H         24.00651       61.06914      120.73394
H         23.80019       59.96297      122.86588
H         23.80078       58.84769      121.58251
H         25.19109       59.01721      122.54977
N         25.49951       66.34521      120.99043
C         24.29919       67.05454      120.55486
C         24.60985       67.96669      119.38446
O         23.96074       67.83710      118.35574
C         23.71424       67.83055      121.75114
C         23.15194       66.83623      122.78664
C         22.70534       67.46101      124.06842
O         22.81015       68.65526      124.27734
O         22.14291       66.66977      124.99010
H         25.79912       66.43576      121.97109
H         23.52986       66.32557      120.21177
H         22.88937       68.49825      121.42687
H         24.51439       68.46232      122.18819
H         23.89890       66.06350      123.05551
H         22.27924       66.31853      122.33207
N         25.62539       68.86786      119.44736
C         26.02464       69.70268      118.33304
H         27.06898       69.45139      118.04937
H         25.38093       69.55603      117.44031
H         25.97870       70.76904      118.63313
H         26.17309       68.93823      120.31000
Ca        21.24291       67.42698      126.89218
O         24.53616       68.99024      128.58293
H         25.19427       69.45580      129.15719
H         24.64130       68.03572      128.81956
O         23.84593       65.65879      127.24768
H         23.36825       66.06215      128.01509
H         24.45533       64.99607      127.65826

Ca 1.0



