%chk=holoCaM.loop4.water3.frame240.chk
%nprocshared=20
%mem=10GB
%nosave
#b3lyp/svp scf=(tight,noincore,xqc) Test 
#IOP(5/87=12) Density=Current Pop=(MK,readradii) iop(6/33=2) iop(6/42=6)

holoCaM.loop4.water3.frame240 

   -3  1 
C         32.82614       76.63514       48.43582
C         32.11628       77.64651       49.28228
O         31.88962       78.75164       48.81156
H         33.77584       76.33638       48.92524
H         32.17915       75.74364       48.30136
H         33.05882       77.05962       47.43465
N         31.74753       77.34166       50.56062
C         31.05486       78.29335       51.42352
C         30.96837       77.75231       52.84765
O         30.35830       76.71049       53.04771
C         29.63166       78.57714       50.88145
C         28.95577       79.71416       51.59030
O         27.80747       80.01065       51.30429
O         29.62179       80.44712       52.49806
H         32.00203       76.41295       50.93242
H         31.64734       79.23273       51.42479
H         29.01655       77.65584       50.97611
H         29.65821       78.85279       49.80889
N         31.58480       78.40281       53.87990
C         31.60021       77.90737       55.25750
C         31.02236       78.90467       56.27456
O         30.89102       78.51542       57.42660
C         33.04802       77.45389       55.64252
C         34.06669       78.62971       55.61331
C         33.48716       76.29767       54.72081
C         35.49462       78.23068       55.99924
H         32.10961       79.25657       53.66503
H         30.95000       77.00808       55.33352
H         33.01655       77.04738       56.67823
H         33.72949       79.41081       56.32791
H         34.11832       79.08092       54.60274
H         32.74414       75.47308       54.76174
H         33.58582       76.63952       53.66854
H         34.45509       75.86668       55.04703
H         36.14082       79.13407       56.00669
H         35.51525       77.76678       57.00719
H         35.92983       77.52851       55.25805
N         30.67939       80.19120       55.95292
C         30.15929       81.16530       56.92972
C         28.86099       81.85810       56.49176
O         28.31636       82.60166       57.29654
C         31.23526       82.23779       57.22304
C         31.77567       82.79406       55.94488
O         30.93853       83.25370       54.99999
O         32.95707       82.64114       55.67471
H         30.85433       80.51946       54.99489
H         29.92877       80.66085       57.89251
H         32.07618       81.76209       57.77481
H         30.82637       83.04890       57.86221
N         28.31606       81.70325       55.25191
C         27.09008       82.36150       54.82219
C         27.17568       83.87514       54.86895
O         26.37898       84.48252       55.56995
H         28.76882       81.08393       54.57747
H         26.25234       82.01427       55.46475
H         26.86215       82.06052       53.77595
N         28.10129       84.55203       54.13079
C         28.20281       86.01349       54.10197
C         27.98804       86.58169       52.69870
O         28.19044       87.77486       52.51819
C         29.54024       86.47952       54.73502
C         30.81540       86.03674       54.07207
O         30.80948       85.33211       53.08018
O         31.99335       86.41049       54.60616
H         28.76031       84.00300       53.56032
H         27.41720       86.47638       54.73806
H         29.56801       86.11455       55.78395
H         29.55008       87.59111       54.76574
N         27.52945       85.81209       51.66519
C         27.31789       86.33017       50.31861
C         28.60615       86.64387       49.57360
O         28.51958       87.12197       48.45142
H         27.26505       84.83385       51.83798
H         26.67218       87.23347       50.37370
H         26.77888       85.56591       49.71710
N         29.82967       86.38041       50.11374
C         31.10717       86.63838       49.45821
C         31.89073       85.34117       49.32798
O         31.44802       84.32396       49.84635
C         31.92692       87.61208       50.33163
C         31.22913       88.96379       50.53987
C         32.02957       89.84169       51.46814
N         32.23368       89.47858       52.75707
O         32.48868       90.89637       51.05713
H         29.87473       85.96083       51.04390
H         30.95243       87.07030       48.44514
H         32.91987       87.79773       49.86780
H         32.09457       87.12927       51.31942
H         30.22141       88.82452       50.98452
H         31.11155       89.45921       49.55155
H         31.83816       88.60333       53.12694
H         32.77905       90.07862       53.39326
N         33.08590       85.30851       48.66658
C         33.94194       84.12524       48.63824
C         35.30718       84.48885       49.20577
O         36.00633       85.30640       48.62303
C         33.98998       83.48572       47.22143
C         34.57339       84.39888       46.13073
C         34.75286       82.15119       47.25581
H         33.41324       86.16433       48.19250
H         33.49896       83.34573       49.29118
H         32.93947       83.25723       46.93224
H         34.50346       83.89335       45.14392
H         34.00318       85.34770       46.06293
H         35.64309       84.62450       46.31264
H         34.28383       81.46058       47.98876
H         34.71976       81.66098       46.26002
H         35.81508       82.30550       47.54095
N         35.72464       83.95761       50.38890
C         36.99142       84.32397       51.01804
C         38.16886       83.69277       50.27627
O         37.95887       82.86217       49.40580
C         36.94039       83.89190       52.50776
C         38.09620       84.33587       53.36545
N         38.38288       85.64945       53.52157
O         38.76038       83.49977       53.95768
H         35.08397       83.32698       50.89238
H         37.07677       85.43263       50.98582
H         36.83241       82.78648       52.56170
H         36.04026       84.34395       52.96622
H         37.82438       86.37395       53.04834
H         39.16531       85.94356       54.12482
N         39.44651       84.05929       50.57527
C         40.64560       83.45165       49.99344
C         40.74807       81.98715       50.38417
O         41.05287       81.16601       49.53124
C         41.88720       84.24572       50.45414
C         43.21036       83.67135       49.99457
C         43.47659       83.42605       48.63468
C         44.20855       83.39543       50.94478
C         44.71609       82.90760       48.24028
C         45.44820       82.89076       50.54730
C         45.70641       82.64316       49.19288
O         46.90041       82.15711       48.79743
H         39.57535       84.81589       51.26192
H         40.60585       83.52782       48.88426
H         41.88167       84.32232       51.56373
H         41.79557       85.27607       50.04598
H         42.72965       83.62949       47.87860
H         44.03433       83.58441       51.99661
H         44.90999       82.71605       47.19215
H         46.20751       82.69617       51.29420
H         47.61354       81.97272       49.42588
N         40.46914       81.58807       51.65471
C         40.44660       80.19169       52.08139
C         39.46059       79.39256       51.23363
O         39.85606       78.38839       50.65815
C         40.11401       80.12924       53.59207
C         40.15541       78.70671       54.17089
C         40.03778       78.73715       55.67057
O         40.88672       79.30578       56.34023
O         39.01145       78.12062       56.28608
H         40.22503       82.31535       52.34073
H         41.46458       79.75934       51.95416
H         39.11791       80.58162       53.79738
H         40.88446       80.73908       54.11519
H         41.11991       78.21900       53.91432
H         39.32572       78.10579       53.73952
N         38.16964       79.80571       51.08209
C         37.18388       79.08441       50.26655
C         37.54212       79.05344       48.78542
O         36.94793       78.26716       48.06020
C         35.80972       79.77588       50.32561
C         35.21308       79.89606       51.72744
C         33.98176       80.75223       51.71043
O         33.44219       81.11144       52.87591
O         33.50715       81.18323       50.67287
H         37.89311       80.67043       51.56753
H         37.10387       78.04397       50.65398
H         35.07815       79.23167       49.68515
H         35.94270       80.80350       49.91488
H         35.92731       80.39854       52.40679
H         34.98106       78.89350       52.14778
N         38.39832       79.96426       48.24747
C         38.66779       80.08715       46.83093
H         39.75475       79.96482       46.64841
H         38.11177       79.34179       46.22603
H         38.36135       81.10225       46.49670
H         38.84622       80.64949       48.85826
Ca        31.71210       82.51411       53.05215
O         28.95420       83.11337       50.95783
H         28.22186       82.67024       51.45412
H         28.53807       83.39708       50.10532
O         30.63121       81.44578       49.36607
H         31.57168       81.41564       49.06397
H         30.16899       81.97234       48.66748
O         33.55196       84.60304       52.57640
H         33.76920       85.56441       52.65585
H         33.74874       84.22802       53.47199

Ca 1.0



