%chk=holoCaM-CaMKII.loop2.water2.frame36.chk
%nprocshared=20
%mem=10GB
%nosave
#b3lyp/svp scf=(tight,noincore,xqc) Test 
#IOP(5/87=12) Density=Current Pop=(MK,readradii) iop(6/33=2) iop(6/42=6)

holoCaM-CaMKII.loop2.water2.frame36 

   -2  1 
C         40.96739       76.54534       27.74766
C         41.40492       76.50732       29.18463
O         40.87132       77.24123       30.00017
H         40.15668       77.28794       27.59255
H         41.82724       76.79861       27.09385
H         40.58182       75.54272       27.45809
N         42.36022       75.62110       29.56577
C         42.76316       75.39297       30.94998
C         43.47561       76.58456       31.58036
O         44.46302       77.05244       31.03152
C         43.65137       74.13631       31.00064
C         43.97387       73.73970       32.40451
O         45.13072       73.53978       32.73512
O         42.98252       73.59481       33.30205
H         42.75952       75.01547       28.83057
H         41.84713       75.15764       31.53581
H         44.58587       74.28044       30.41442
H         43.08405       73.29844       30.54481
N         43.04523       77.07858       32.78136
C         43.67859       78.17952       33.50173
C         44.19845       77.77004       34.89033
O         44.72124       78.64072       35.57327
C         42.65233       79.31252       33.65066
H         42.22121       76.64757       33.21866
H         44.54158       78.57737       32.92511
H         43.10489       80.19210       34.15747
H         42.29397       79.63896       32.65094
H         41.77686       78.97203       34.24616
N         44.08723       76.49718       35.39114
C         44.42630       76.16411       36.78840
C         44.85330       74.70578       37.03538
O         45.17609       74.39539       38.17396
C         43.22144       76.52494       37.69430
C         41.97953       75.75127       37.33390
O         40.90103       76.05401       37.81750
O         42.05284       74.77823       36.40985
H         43.59468       75.80474       34.81819
H         45.29205       76.78744       37.10467
H         43.00626       77.60611       37.55052
H         43.46077       76.36609       38.76747
N         44.89477       73.76117       36.05176
C         45.33835       72.38847       36.26178
C         44.42789       71.50671       37.10983
O         44.80598       70.36282       37.32024
H         44.67373       74.02555       35.09154
H         46.35410       72.41028       36.71127
H         45.42201       71.88970       35.27059
N         43.23156       71.92392       37.62353
C         42.38183       71.07161       38.46221
C         41.75715       69.86285       37.73744
O         41.04576       69.11006       38.38919
C         41.28065       71.89903       39.17184
C         40.19584       72.46376       38.29354
N         39.11775       73.03968       38.86904
O         40.26329       72.38726       37.07767
H         42.94109       72.89205       37.47116
H         43.01925       70.68260       39.28671
H         41.74199       72.73241       39.74590
H         40.78437       71.22641       39.90442
H         39.03721       73.10733       39.89379
H         38.34461       73.38776       38.29336
N         41.99107       69.58664       36.42090
C         41.48998       68.39842       35.73913
C         40.06303       68.49624       35.22051
O         39.63492       67.55338       34.57196
H         42.64183       70.17622       35.89368
H         41.62291       67.50299       36.38586
H         42.11870       68.23965       34.83673
N         39.27454       69.58736       35.43645
C         37.91981       69.73811       34.89856
C         37.79991       71.02811       34.09094
O         38.75872       71.77790       33.98714
C         36.89540       69.73519       36.06555
C         36.82659       68.36594       36.74149
O         37.22313       70.70957       37.02330
H         39.63663       70.34923       36.01621
H         37.66159       68.90210       34.21189
H         35.86298       69.91330       35.68946
H         36.88677       71.57839       36.68065
H         37.80694       68.08277       37.17611
H         36.06610       68.38642       37.55103
H         36.52027       67.59503       36.00059
N         36.59761       71.36425       33.53681
C         36.32174       72.63753       32.88449
C         35.51476       73.47066       33.86391
O         34.49282       73.00741       34.34937
C         35.55817       72.42513       31.54038
C         36.44056       71.64722       30.53052
C         35.12089       73.78255       30.94134
C         35.69068       71.22987       29.26062
H         35.79832       70.72845       33.66703
H         37.26042       73.18000       32.65912
H         34.64232       71.83045       31.75407
H         36.80963       70.71352       31.00450
H         37.32287       72.26378       30.24904
H         34.46086       74.33091       31.64322
H         36.00554       74.41476       30.71603
H         34.52694       73.65364       30.01608
H         35.32537       72.10220       28.68324
H         36.37421       70.65892       28.59787
H         34.82977       70.57932       29.52419
N         35.91474       74.73852       34.16622
C         35.19805       75.61987       35.08017
C         34.39924       76.61944       34.27939
O         34.46623       76.59279       33.06338
C         36.19525       76.35651       35.99551
C         37.01933       75.41604       36.81650
O         36.96264       75.47447       38.16052
O         37.76516       74.61748       36.27257
H         36.72343       75.13153       33.66993
H         34.47620       75.03919       35.69546
H         35.64219       77.03039       36.68335
H         36.88272       76.97851       35.38008
N         33.56939       77.50769       34.89468
C         32.73856       78.42316       34.12736
C         33.56903       79.42761       33.33584
O         33.32392       79.52078       32.13968
C         31.67846       79.12284       35.00630
C         30.72708       79.93339       34.15403
C         30.64230       81.32728       34.30733
C         29.92077       79.30006       33.18855
C         29.77178       82.07219       33.50501
C         29.05441       80.04843       32.38924
C         28.97997       81.43365       32.54643
H         33.48228       77.48717       35.92111
H         32.15867       77.80317       33.40896
H         32.15225       79.76731       35.76605
H         31.08859       78.35712       35.55453
H         31.25335       81.83843       35.04069
H         29.96047       78.22709       33.05038
H         29.71261       83.14581       33.62459
H         28.44166       79.55253       31.64732
H         28.30828       82.01129       31.92521
N         34.55196       80.21993       33.87983
C         35.30937       81.20480       33.11055
C         35.93618       80.62676       31.85312
O         36.11085       81.34424       30.87979
C         36.40660       81.66069       34.08342
C         35.71415       81.52384       35.41938
C         35.00501       80.18468       35.25886
H         34.61712       82.03694       32.85428
H         37.23914       80.91872       34.09201
H         36.83003       82.66428       33.86314
H         36.37501       81.59320       36.30972
H         34.93922       82.32244       35.48463
H         35.70937       79.33166       35.37906
H         34.20832       80.12850       36.01643
N         36.31468       79.32126       31.82825
C         36.90063       78.66150       30.66945
C         35.84113       78.45436       29.60767
O         36.01859       78.90054       28.48351
C         37.48325       77.29938       31.08473
C         38.54369       77.47613       32.17800
C         39.06626       76.18011       32.68072
O         39.89392       76.21877       33.72184
O         38.73213       75.10986       32.20337
H         36.17300       78.76795       32.68481
H         37.74854       79.26789       30.27742
H         37.94175       76.79808       30.20336
H         36.67601       76.64743       31.48154
H         38.11086       77.97808       33.06542
H         39.38369       78.10571       31.82000
N         34.70127       77.77385       29.91734
C         33.62689       77.49901       28.99122
H         32.69639       77.97646       29.36516
H         33.84273       77.87481       27.97130
H         33.46446       76.40087       28.94329
H         34.57322       77.43207       30.87448
Ca        40.46749       74.45424       34.91884
O         41.79448       71.28137       33.86647
H         42.71599       70.99349       33.64332
H         41.24812       70.97519       33.10257
O         40.48361       72.88348       31.43050
H         39.51188       72.70441       31.46661
H         40.75222       72.60180       30.52097

Ca 1.0



