%chk=holoCaM.loop4.water3.frame492.chk
%nprocshared=20
%mem=10GB
%nosave
#b3lyp/svp scf=(tight,noincore,xqc) Test 
#IOP(5/87=12) Density=Current Pop=(MK,readradii) iop(6/33=2) iop(6/42=6)

holoCaM.loop4.water3.frame492 

   -3  1 
C         18.57882       60.91946       24.88310
C         19.37111       59.66168       24.72011
O         19.15846       58.97532       23.73038
H         17.49821       60.67472       24.94795
H         18.88668       61.47952       25.78861
H         18.74913       61.56176       23.99189
N         20.30324       59.28021       25.64452
C         21.13141       58.10142       25.43502
C         21.90178       57.68922       26.69182
O         22.56167       58.51375       27.30832
C         22.11417       58.34677       24.26776
C         22.75270       57.04821       23.90719
O         23.95378       56.89666       24.04429
O         21.95175       56.03959       23.49524
H         20.42015       59.83923       26.50326
H         20.45096       57.26181       25.16312
H         22.86950       59.10811       24.56408
H         21.59298       58.71274       23.36072
N         21.89730       56.37796       27.06949
C         22.57800       55.81807       28.23431
C         23.70637       54.89223       27.77813
O         24.82348       55.06748       28.24469
C         21.53988       55.05841       29.12743
C         20.46128       56.04865       29.64634
C         22.22831       54.33093       30.30339
C         19.31878       55.38624       30.42369
H         21.38251       55.71894       26.47437
H         23.03474       56.62104       28.85725
H         21.04330       54.28224       28.50637
H         19.99723       56.56709       28.78217
H         20.93802       56.81833       30.29231
H         22.97398       53.59658       29.93399
H         22.73728       55.05450       30.97410
H         21.49820       53.74158       30.89408
H         19.67719       54.91157       31.35911
H         18.57481       56.15900       30.71218
H         18.81091       54.62685       29.79260
N         23.48500       53.87786       26.88949
C         24.47990       52.85700       26.55098
C         25.08737       52.94484       25.14752
O         25.92040       52.10654       24.82959
C         23.87816       51.46612       26.81618
C         22.70654       51.01497       25.96598
O         22.08315       51.75835       25.02121
O         22.28491       49.88583       26.15678
H         22.54429       53.78537       26.49680
H         25.35234       52.95549       27.23347
H         23.56080       51.42173       27.88119
H         24.68581       50.71502       26.67910
N         24.78382       53.94565       24.27905
C         25.42007       54.11735       22.97488
C         25.17357       53.01154       21.95862
O         25.78645       53.07548       20.90168
H         24.13560       54.66622       24.59485
H         26.51663       54.19914       23.13998
H         25.07873       55.07033       22.51763
N         24.33752       51.95908       22.19191
C         24.24287       50.81298       21.28407
C         23.68246       51.13447       19.89915
O         23.83640       50.30515       19.01362
C         23.41638       49.67867       21.92809
C         21.94744       49.99792       21.98156
O         21.55221       51.01213       22.52703
O         21.06138       49.17381       21.39395
H         23.82716       51.92557       23.08228
H         25.28270       50.43525       21.16064
H         23.79554       49.49160       22.95660
H         23.54466       48.74334       21.34282
N         22.95572       52.26461       19.65951
C         22.37042       52.58759       18.36284
C         20.85127       52.53963       18.36061
O         20.27786       52.82173       17.31684
H         22.78104       52.91480       20.43419
H         22.70910       51.87349       17.58050
H         22.71607       53.59858       18.06194
N         20.13124       52.12380       19.44444
C         18.68444       51.90632       19.42554
C         18.00148       52.66907       20.54770
O         18.67818       53.37593       21.28454
C         18.42113       50.39055       19.55690
C         19.08727       49.61908       18.40259
C         18.85326       48.13244       18.44466
N         19.38046       47.35203       17.47370
O         18.19623       47.62382       19.34149
H         20.62756       51.85923       20.30486
H         18.23770       52.24665       18.46515
H         17.33054       50.18755       19.52343
H         18.81100       50.02758       20.53167
H         20.18583       49.78238       18.42747
H         18.69023       50.00599       17.43915
H         19.93613       47.76914       16.71170
H         19.23389       46.33235       17.48023
N         16.65369       52.55433       20.75100
C         15.94825       53.24077       21.82509
C         15.45055       52.21228       22.82654
O         14.54743       51.44702       22.51441
C         14.77571       54.09300       21.25550
C         14.01052       54.82664       22.36798
C         15.27551       55.11899       20.22932
H         16.10030       51.93779       20.13664
H         16.64371       53.92867       22.35474
H         14.05925       53.41745       20.73568
H         14.68589       55.51436       22.92020
H         13.17240       55.41588       21.93802
H         13.56585       54.10347       23.07969
H         15.98768       55.82959       20.69934
H         15.77729       54.61095       19.37965
H         14.41688       55.69251       19.81713
N         16.01300       52.14630       24.06557
C         15.51637       51.29211       25.14069
C         14.30165       51.96443       25.76386
O         13.99717       53.08260       25.39662
C         16.68724       51.04364       26.13266
C         16.42710       50.13232       27.30847
N         17.00251       48.91051       27.38271
O         15.73240       50.51279       28.23199
H         16.80403       52.77040       24.27208
H         15.22387       50.30524       24.71839
H         17.08900       52.00744       26.51809
H         17.47939       50.56668       25.52797
H         17.60751       48.55912       26.62737
H         16.83418       48.30869       28.20285
N         13.52465       51.33510       26.67810
C         12.38971       51.97981       27.34502
C         12.83206       53.15371       28.22933
O         12.24576       54.22074       28.10497
C         11.48415       50.92667       28.03005
C         12.19533       49.89029       28.86813
C         12.34345       48.58462       28.36017
C         12.71206       50.19159       30.13317
C         13.01427       47.60832       29.09363
C         13.37646       49.20665       30.87535
C         13.53494       47.91552       30.35591
O         14.18637       46.97942       31.07444
H         13.74051       50.35104       26.87955
H         11.71671       52.41830       26.57125
H         11.00754       50.38325       27.18308
H         10.64977       51.40081       28.59033
H         11.95591       48.32406       27.38227
H         12.59234       51.18328       30.54303
H         13.12927       46.61559       28.67612
H         13.77109       49.44679       31.85384
H         14.31897       46.07961       30.74186
N         13.90489       53.06809       29.07215
C         14.41681       54.18860       29.87783
C         14.92928       55.37620       29.04568
O         15.32051       56.37066       29.64180
C         15.59346       53.72964       30.78310
C         15.26182       52.60403       31.77603
C         14.17119       52.99172       32.73341
O         14.32305       54.06376       33.53384
O         13.14840       52.32986       32.80150
H         14.37730       52.16485       29.14029
H         13.59078       54.55663       30.52479
H         15.95816       54.59802       31.37673
H         16.43381       53.38906       30.13783
H         16.17690       52.37685       32.36413
H         14.98589       51.67947       31.23186
N         14.95990       55.35523       27.68454
C         15.45111       56.44051       26.84413
C         14.26736       57.07528       26.13474
O         14.05993       58.27131       26.28444
C         16.49753       55.87600       25.85566
C         17.71929       55.30980       26.60833
C         18.69192       54.57857       25.72542
O         19.73682       53.94498       26.28510
O         18.52939       54.50764       24.51957
H         14.62662       54.52516       27.19367
H         15.94045       57.23663       27.44939
H         16.83517       56.66679       25.14986
H         16.02521       55.06116       25.26349
H         17.37643       54.57768       27.36779
H         18.24959       56.13716       27.12777
N         13.41185       56.32587       25.38949
C         12.22385       56.86559       24.76929
H         11.55797       57.29925       25.54560
H         12.49831       57.64093       24.02593
H         11.66957       56.05129       24.25277
H         13.58521       55.32662       25.28009
Ca        21.93434       53.87188       24.17413
O         19.34589       51.34326       24.11628
H         19.40885       50.38667       23.86723
H         19.58835       51.36080       25.07614
O         21.48809       54.95961       20.96763
H         22.40428       55.27709       20.76499
H         20.92990       55.31875       20.23433
O         19.09919       56.15597       22.44196
H         18.45324       56.07155       21.69747
H         19.72514       56.86541       22.15423

Ca 1.0



