%chk=holoCaM-CaMKII.loop3.water2.frame153.chk
%nprocshared=20
%mem=10GB
%nosave
#b3lyp/svp scf=(tight,noincore,xqc) Test 
#IOP(5/87=12) Density=Current Pop=(MK,readradii) iop(6/33=2) iop(6/42=6)

holoCaM-CaMKII.loop3.water2.frame153 

   0  1 
C          6.71971       84.64774       60.12194
C          7.59367       83.87261       61.06093
O          7.36955       83.91190       62.26125
H          5.92664       85.19293       60.67610
H          7.33584       85.38111       59.56005
H          6.24033       83.94957       59.40354
N          8.63411       83.15057       60.56619
C          9.54239       82.35721       61.38022
C         10.89493       83.03768       61.34835
O         11.85791       82.51550       60.80395
C          9.52681       80.90615       60.86386
C         10.43765       80.00387       61.64325
O         11.29642       79.36451       61.06113
O         10.30406       79.87964       62.97698
H          8.81025       83.18178       59.54933
H          9.21901       82.32917       62.44594
H          9.80700       80.87987       59.78792
H          8.49402       80.51177       60.96058
N         11.00578       84.25236       61.95319
C         12.22251       85.05610       61.99583
C         13.34558       84.27055       62.63577
O         14.38615       84.11306       62.01222
C         11.97096       86.36211       62.78746
C         10.94375       87.27359       62.09008
C         10.61750       88.50287       62.94858
C          9.64757       89.47981       62.25862
N          8.35109       88.87049       61.94922
H         10.16484       84.60937       62.43100
H         12.52479       85.33186       60.96034
H         12.92412       86.92742       62.88661
H         11.61130       86.10620       63.80882
H         10.00360       86.71727       61.91552
H         11.35255       87.59382       61.10718
H         11.55801       89.05310       63.16894
H         10.17553       88.16985       63.91387
H         10.10751       89.86955       61.32397
H          9.48493       90.34032       62.94490
H          8.45163       88.13794       61.21115
H          7.92627       88.45725       62.81085
H          7.71085       89.60874       61.57760
N         13.18892       83.72203       63.87286
C         14.22442       82.93354       64.53078
C         14.68124       81.77592       63.65100
O         15.86815       81.71172       63.36078
C         13.78790       82.48544       65.94725
C         12.58981       81.57422       66.01175
O         12.69256       80.48165       66.54242
O         11.38876       81.97043       65.54860
H         12.29353       83.87716       64.35662
H         15.10512       83.59676       64.69203
H         13.55688       83.39212       66.54672
H         14.65232       81.97743       66.43050
N         13.80099       80.86423       63.14299
C         14.20171       79.79551       62.23311
C         13.90857       78.40459       62.76467
O         14.23008       77.44988       62.07131
H         12.80021       80.95643       63.36785
H         15.29114       79.83801       62.01954
H         13.68316       79.94078       61.26485
N         13.35496       78.19753       63.99422
C         13.22366       76.87150       64.59475
C         12.26702       75.91836       63.88329
O         12.29130       74.74677       64.23564
C         12.85900       76.99133       66.09479
C         11.53526       77.66630       66.38634
N         11.15194       77.86017       67.66809
O         10.81425       78.05583       65.48100
H         13.11659       79.01315       64.56921
H         14.23301       76.40349       64.55036
H         13.65674       77.58456       66.59271
H         12.85245       75.97997       66.55531
H         11.74922       77.54885       68.44755
H         10.25923       78.32781       67.88232
N         11.39549       76.31421       62.90823
C         10.52422       75.37412       62.20801
C          9.04906       75.56624       62.50051
O          8.26330       74.78701       61.97984
H         11.34029       77.30740       62.64797
H         10.76105       74.32652       62.49092
H         10.70300       75.46522       61.11529
N          8.58392       76.55366       63.31924
C          7.16394       76.71320       63.63524
C          6.86681       78.13493       64.18880
O          7.66529       79.04091       63.48323
C          6.69071       75.60393       64.61652
C          7.52204       75.53168       65.88544
C          8.81081       74.96487       65.85942
C          7.01593       76.00255       67.10948
C          9.57804       74.87948       67.02218
C          7.79170       75.92454       68.27395
C          9.07594       75.36163       68.23214
O          9.83490       75.27683       69.34358
H          9.25156       77.22859       63.71152
H          6.59393       76.65483       62.68054
H          6.71979       74.60527       64.13205
H          5.62612       75.77190       64.87139
H          9.22447       74.56939       64.94449
H          6.02763       76.44127       67.16293
H         10.56535       74.43581       66.98063
H          7.39458       76.30125       69.20803
H          9.53132       75.60216       70.20268
N          5.42004       78.46693       64.03534
C          4.99181       79.83280       64.45104
C          3.80510       79.82531       65.42468
O          2.75850       79.27753       65.11092
C          4.62250       80.73445       63.22362
C          3.53750       80.10372       62.30572
C          5.86654       81.10818       62.40956
C          3.02399       81.05250       61.22241
H          4.85106       77.75554       64.54282
H          5.79749       80.34273       64.99558
H          4.22851       81.69000       63.64153
H          2.64125       79.83185       62.88741
H          3.93353       79.17856       61.83414
H          6.63483       81.55418       63.07152
H          6.27902       80.22311       61.88892
H          5.62603       81.87507       61.64865
H          2.59655       81.96342       61.69210
H          3.82044       81.33987       60.50917
H          2.22256       80.54617       60.64460
N          3.88976       80.47758       66.62150
C          2.73223       80.67236       67.49509
C          1.77196       81.70440       66.89930
O          2.05829       82.25597       65.84715
C          3.19567       81.14088       68.88821
O          3.81668       82.39910       68.81729
H          4.79215       80.89308       66.89824
H          2.21438       79.69813       67.63664
H          3.87864       80.37259       69.32174
H          2.33577       81.21385       69.58632
H          4.77867       82.26913       69.02156
N          0.62328       82.04408       67.55051
C         -0.27644       83.10882       67.10593
C          0.42978       84.45459       67.10803
O          0.35817       85.16690       66.11716
C         -1.49591       83.19464       68.03171
H          0.39073       81.54059       68.42018
H         -0.65956       82.88376       66.08476
H         -2.18391       83.99563       67.68246
H         -2.04991       82.23244       68.01836
H         -1.19005       83.41884       69.07599
N          1.14979       84.84902       68.19852
C          1.84282       86.13135       68.31092
C          2.74057       86.39202       67.12150
O          2.60928       87.43488       66.49505
C          2.68181       86.15856       69.59693
H          1.22397       84.18653       68.98605
H          1.09156       86.94967       68.37095
H          3.20313       87.13432       69.69881
H          2.02978       86.01299       70.48359
H          3.44520       85.34963       69.58598
N          3.66152       85.46988       66.74003
C          4.54844       85.64823       65.59688
C          3.74685       85.88378       64.32591
O          3.94279       86.91458       63.69721
C          5.46663       84.42399       65.45661
C          6.48099       84.33891       66.61985
C          7.27197       83.07896       66.49539
O          7.81035       82.76879       65.30712
O          7.25803       82.25081       67.39214
H          3.71087       84.59250       67.27963
H          5.19552       86.53932       65.76116
H          6.04052       84.50561       64.50806
H          4.84489       83.50052       65.40482
H          5.96675       84.34033       67.60503
H          7.16360       85.21236       66.57419
N          2.80629       84.99260       63.90746
C          1.97671       85.19599       62.73534
H          0.91007       85.22973       63.04354
H          2.21259       86.14248       62.20472
H          2.11870       84.35436       62.02798
H          2.64751       84.13969       64.45537
Ca         8.13394       80.59537       65.03463
O          7.64650       79.12748       67.58962
H          7.62714       79.10805       68.57904
H          6.69673       79.20756       67.32262
O          9.92975       81.26493       68.48600
H         10.77798       81.05969       68.95328
H          9.25839       81.33613       69.21049

Ca 1.0



