%chk=holoCaM.loop4.water3.frame20.chk
%nprocshared=20
%mem=10GB
%nosave
#b3lyp/svp scf=(tight,noincore,xqc) Test 
#IOP(5/87=12) Density=Current Pop=(MK,readradii) iop(6/33=2) iop(6/42=6)

holoCaM.loop4.water3.frame20 

   -3  1 
C         77.81554       21.52446       38.26043
C         77.80160       21.90319       36.81071
O         76.74319       22.28041       36.33376
H         77.50164       22.41592       38.85054
H         77.09893       20.70192       38.45578
H         78.82981       21.23217       38.59859
N         78.95226       21.92025       36.07032
C         79.02236       22.61532       34.79070
C         79.87592       21.91531       33.74118
O         81.03237       21.61791       34.00413
C         79.60037       24.00466       35.08782
C         79.51876       24.91527       33.91265
O         78.44735       25.09819       33.35747
O         80.61791       25.57159       33.49896
H         79.83650       21.65325       36.52886
H         77.99802       22.77020       34.38576
H         80.65040       23.93049       35.44545
H         78.99855       24.46542       35.89441
N         79.37306       21.70777       32.48903
C         80.14205       21.19418       31.35489
C         80.15758       22.18094       30.16742
O         80.78197       21.85424       29.16728
C         79.60354       19.78532       30.94343
C         78.12828       19.83096       30.45686
C         79.80042       18.80748       32.11979
C         77.55258       18.46810       30.06486
H         78.39329       21.95388       32.32393
H         81.20572       21.05824       31.64779
H         80.22735       19.40662       30.10331
H         78.06296       20.49833       29.57155
H         77.47416       20.24303       31.24005
H         79.17773       19.09628       32.99293
H         79.54930       17.76786       31.82867
H         80.86748       18.80043       32.43018
H         77.48282       17.79646       30.94620
H         76.52061       18.60148       29.67539
H         78.17588       17.99194       29.28046
N         79.47841       23.37484       30.18545
C         79.36519       24.27166       29.02357
C         79.56134       25.76987       29.31565
O         79.63265       26.53522       28.36330
C         77.98547       24.04685       28.37118
C         76.79809       24.29239       29.29234
O         76.96726       24.77154       30.55610
O         75.67930       24.06631       28.86658
H         78.92556       23.59547       31.01585
H         80.13955       23.99839       28.27108
H         77.95441       22.99025       28.02499
H         77.88592       24.69129       27.46803
N         79.63037       26.27061       30.58006
C         79.82488       27.68095       30.90175
C         78.69203       28.61718       30.49580
O         78.88256       29.81746       30.63437
H         79.58026       25.61923       31.35604
H         80.76725       28.01661       30.41771
H         79.95476       27.79370       32.00053
N         77.50616       28.17711       29.97971
C         76.48197       29.09142       29.46411
C         75.82071       30.00672       30.50758
O         75.09491       30.89428       30.08085
C         75.39709       28.32329       28.65429
C         74.59502       27.33923       29.44218
O         74.87861       27.12277       30.71931
O         73.68721       26.71611       28.91917
H         77.36135       27.16674       29.87025
H         76.99120       29.75334       28.73063
H         75.88199       27.75986       27.83037
H         74.68600       29.05425       28.21817
N         75.96286       29.84792       31.85935
C         75.27947       30.70351       32.83481
C         74.08760       30.01988       33.49900
O         73.39917       30.67218       34.27038
H         76.52361       29.06498       32.21530
H         74.88581       31.61830       32.34105
H         76.00662       31.04595       33.60290
N         73.75982       28.72864       33.21101
C         72.59690       28.00700       33.70473
C         73.03665       26.71650       34.47745
O         74.26176       26.07405       34.15503
C         71.62695       27.69991       32.52517
C         70.99740       28.95604       31.87056
C         70.14134       29.76458       32.82326
N         70.41827       31.06732       33.07150
O         69.17608       29.24165       33.36119
H         74.35770       28.21453       32.57511
H         72.01640       28.62048       34.42700
H         70.78065       27.07680       32.88614
H         72.16238       27.11954       31.74347
H         70.33632       28.62778       31.03708
H         71.79447       29.59224       31.43271
H         71.21894       31.53401       32.62195
H         69.82680       31.61701       33.71362
N         71.91668       25.78941       34.74811
C         72.19919       24.36343       35.03263
C         71.21994       23.53481       34.21674
O         70.01628       23.66086       34.39495
C         72.11235       23.98758       36.54390
C         72.32334       22.46972       36.73341
C         73.16569       24.72234       37.38568
H         71.17330       26.21046       35.35298
H         73.21776       24.09925       34.69853
H         71.10315       24.24798       36.93206
H         73.32707       22.16754       36.36564
H         72.23824       22.18957       37.80364
H         71.55622       21.88506       36.18603
H         74.18686       24.46946       37.03739
H         73.02622       25.82045       37.33855
H         73.08878       24.40772       38.44997
N         71.69590       22.67630       33.27378
C         70.85691       21.88811       32.37326
C         70.29633       20.65183       33.07572
O         70.71936       20.33876       34.17965
C         71.77419       21.40821       31.21370
C         71.16587       20.88412       29.94506
N         71.97059       20.32567       29.01292
O         69.97723       21.00799       29.71450
H         72.71659       22.64229       33.14174
H         70.06215       22.55424       31.97212
H         72.49434       20.66589       31.62441
H         72.34810       22.26100       30.85018
H         72.98492       20.24282       29.17934
H         71.58112       19.96843       28.12920
N         69.39925       19.84956       32.43584
C         69.06884       18.49458       32.85853
C         70.30759       17.60595       32.77853
O         70.51017       16.79798       33.67163
C         67.89989       17.85525       32.05032
C         68.14383       17.57656       30.57520
C         68.35918       16.25511       30.13974
C         68.12047       18.60307       29.61404
C         68.57982       15.97667       28.78646
C         68.34893       18.32530       28.26398
C         68.58524       17.01480       27.84486
O         68.81217       16.76596       26.53945
H         68.96926       20.20794       31.58941
H         68.70743       18.52797       33.91129
H         66.97194       18.45647       32.16079
H         67.69622       16.88378       32.55389
H         68.36545       15.43659       30.84819
H         67.90634       19.62146       29.88748
H         68.75343       14.95548       28.47236
H         68.33688       19.13254       27.54194
H         68.99148       15.87437       26.20888
N         71.17650       17.69465       31.72472
C         72.39336       16.88395       31.61561
C         73.46566       17.24755       32.65332
O         74.47915       16.56360       32.69345
C         72.98801       16.96276       30.18902
C         72.00618       16.41047       29.14297
C         72.62927       16.34195       27.78104
O         72.96272       17.36248       27.20096
O         72.81642       15.14632       27.18917
H         70.95055       18.35099       30.96459
H         72.11452       15.82057       31.78384
H         73.90122       16.32848       30.15117
H         73.28101       18.00461       29.94025
H         71.09644       17.03953       29.08764
H         71.70794       15.38275       29.44442
N         73.30969       18.27851       33.53495
C         74.25566       18.61248       34.60050
C         73.62674       18.42940       35.98036
O         74.32131       18.63619       36.96673
C         74.66943       20.08697       34.46847
C         75.38861       20.39750       33.15569
C         75.58430       21.87645       32.96906
O         75.18132       22.75364       33.90425
O         76.07725       22.29547       31.93746
H         72.47161       18.86063       33.46837
H         75.15597       17.95998       34.55370
H         75.33698       20.37471       35.30979
H         73.74155       20.69672       34.52731
H         74.78350       20.03722       32.29965
H         76.37024       19.87775       33.15454
N         72.32332       18.06620       36.14100
C         71.70277       17.92799       37.43736
H         70.63848       17.63150       37.31057
H         72.22298       17.14608       38.02778
H         71.73567       18.89876       37.97513
H         71.72805       17.89614       35.32951
Ca        75.64549       25.40325       32.37419
O         73.73389       24.05699       31.21267
H         73.49864       24.84974       30.67607
H         74.15417       23.43299       30.57152
O         76.56560       25.15544       35.42195
H         75.87977       24.45851       35.54398
H         76.84308       25.39789       36.33883
O         77.03070       27.48114       33.99895
H         76.49914       27.81849       34.76240
H         77.95102       27.80371       34.16517

Ca 1.0



