%chk=holoCaM-CaMKII.loop1.water2.frame240.chk
%nprocshared=20
%mem=10GB
%nosave
#b3lyp/svp scf=(tight,noincore,xqc) Test 
#IOP(5/87=12) Density=Current Pop=(MK,readradii) iop(6/33=2) iop(6/42=6)

holoCaM-CaMKII.loop1.water2.frame240 

   0  1 
C         93.33740       22.68063       38.05825
C         94.46960       23.18347       38.90306
O         95.50268       23.54188       38.36394
H         92.46331       23.35345       38.18377
H         93.62229       22.66110       36.98432
H         93.05632       21.65306       38.37168
N         94.34780       23.20715       40.25672
C         95.37879       23.69874       41.16183
C         96.10235       22.51301       41.77762
O         95.99712       22.26077       42.96973
C         94.72032       24.64339       42.18605
C         95.70055       25.13514       43.20562
O         96.70420       25.73385       42.86033
O         95.48232       24.88751       44.50962
H         93.48367       22.82547       40.67261
H         96.14945       24.28707       40.61665
H         93.89780       24.11261       42.71338
H         94.28542       25.51596       41.65171
N         96.87273       21.73125       40.97327
C         97.57773       20.54042       41.43090
C         98.67172       20.86745       42.44249
O         98.61538       20.31720       43.53382
C         98.11690       19.73309       40.22704
C         96.93837       19.21416       39.37081
C         97.38678       18.29753       38.22707
C         96.19366       17.68063       37.46717
N         95.37147       18.68411       36.78616
H         96.93135       21.98486       39.97553
H         96.84571       19.87008       41.93627
H         98.67422       18.85260       40.61540
H         98.81197       20.34763       39.61284
H         96.37529       20.07175       38.95184
H         96.25667       18.63053       40.02787
H         97.97441       17.45827       38.65904
H         98.03896       18.85568       37.52138
H         95.55919       17.09665       38.17161
H         96.59392       16.97281       36.70849
H         94.63045       18.19488       36.23363
H         94.89489       19.30894       37.47423
H         95.95975       19.25015       36.13300
N         99.69360       21.73956       42.17563
C        100.76706       22.01149       43.14933
C        100.27026       22.61138       44.47055
O        101.06083       22.69662       45.39978
C        101.87793       22.89511       42.52951
C        101.40916       24.27812       42.17022
O        100.17468       24.68490       42.51803
O        102.11664       25.00037       41.48627
H         99.72582       22.18669       41.24591
H        101.23441       21.03039       43.38767
H        102.22285       22.38782       41.60081
H        102.75127       22.97925       43.21171
N         98.97935       23.01992       44.64013
C         98.43249       23.45015       45.91403
C         99.00565       24.75268       46.41344
O         99.52304       24.79198       47.51998
H         98.32183       22.97828       43.85151
H         98.57033       22.64141       46.66301
H         97.33980       23.60543       45.79289
N         98.88017       25.87910       45.66269
C         99.25042       27.21839       46.11791
C         98.03301       28.15068       46.14979
O         98.19741       29.33405       46.41097
C        100.40772       27.76588       45.25624
C        100.12757       27.92963       43.78858
O        101.02235       28.32345       43.05831
O         98.91921       27.65414       43.26341
H         98.45850       25.78057       44.72915
H         99.64474       27.18573       47.15689
H        101.26632       27.06755       45.36235
H        100.72221       28.75340       45.65917
N         96.77263       27.67038       45.93926
C         95.56046       28.46921       45.95731
C         95.51490       29.45928       44.82342
O         95.15177       30.59947       45.05994
H         96.63405       26.66657       45.78068
H         95.42491       28.96852       46.94198
H         94.69910       27.78081       45.81054
N         95.79667       29.05438       43.55235
C         95.69304       29.88925       42.35059
C         95.81891       29.04270       41.07460
O         96.28217       27.91088       41.11251
C         96.74832       31.04229       42.26950
C         96.56853       32.23560       43.21509
O         98.05132       30.53679       42.38642
H         96.03820       28.06176       43.44254
H         94.66296       30.30921       42.32929
H         96.64766       31.49608       41.25945
H         98.16809       30.23203       43.32441
H         97.28802       33.03307       42.93172
H         95.54042       32.64653       43.12522
H         96.80263       31.98238       44.26449
N         95.35378       29.54746       39.89715
C         95.35087       28.83467       38.62037
C         96.06566       29.68533       37.57510
O         95.83033       30.88444       37.51014
C         93.88288       28.49204       38.22586
C         93.31351       27.46664       39.25119
C         93.81083       27.91811       36.79478
C         91.83423       27.13121       39.06273
H         94.91585       30.48211       39.91408
H         95.88182       27.86120       38.69592
H         93.27839       29.42562       38.25278
H         93.41335       27.87219       40.27964
H         93.90108       26.52173       39.19901
H         94.19401       28.65324       36.05757
H         94.40605       26.98372       36.71299
H         92.76465       27.70956       36.49693
H         91.64088       26.64911       38.08431
H         91.52167       26.41403       39.85199
H         91.22016       28.05104       39.15615
N         96.92990       29.10249       36.69372
C         97.70858       29.82552       35.69101
C         97.26822       29.45051       34.28945
O         96.36284       28.64968       34.12571
C         99.22351       29.50322       35.85399
C         99.75295       29.88924       37.23109
O         99.49299       28.15070       35.56821
H         97.02966       28.08209       36.71857
H         97.56516       30.92235       35.80414
H         99.81516       30.10382       35.13470
H         99.25967       27.60772       36.36215
H         99.21066       29.30442       37.99212
H        100.83710       29.65667       37.29994
H         99.60165       30.97348       37.41492
N         97.90130       30.00091       33.21979
C         97.63798       29.64537       31.82956
C         97.93073       28.16908       31.58099
O         97.07429       27.47518       31.05209
C         98.49689       30.52506       30.87966
C         98.09185       32.00458       30.97072
O         99.86175       30.38748       31.18812
H         98.63313       30.69939       33.41043
H         96.56916       29.84145       31.58523
H         98.31311       30.18022       29.83587
H        100.37399       30.79767       30.44394
H         97.02124       32.12453       30.70254
H         98.25161       32.41268       31.99019
H         98.69980       32.60546       30.26244
N         99.12901       27.62855       31.94377
C         99.52554       26.24374       31.68630
C         98.52833       25.26112       32.27452
O         98.05681       24.39165       31.55503
C        100.94912       26.01704       32.25171
C        101.56394       24.62966       31.99050
C        101.68556       24.29262       30.49618
C        102.46247       22.98571       30.28672
N        102.53131       22.63930       28.86716
H         99.80066       28.24133       32.43042
H         99.56557       26.09477       30.58637
H        100.94075       26.19140       33.35057
H        101.62568       26.77423       31.79658
H        100.97201       23.84213       32.50483
H        102.58313       24.64035       32.43700
H        102.22149       25.11231       29.96921
H        100.67118       24.18343       30.05802
H        101.96580       22.15845       30.84011
H        103.49505       23.10531       30.68572
H        101.56822       22.47701       28.49260
H        102.99489       23.40624       28.32778
H        103.08872       21.76176       28.75521
N         98.12698       25.37720       33.56824
C         97.13309       24.50502       34.19456
C         95.84273       24.50347       33.39744
O         95.39980       23.43558       32.99777
C         96.87825       24.95679       35.64824
C         98.13267       24.70836       36.49676
C         98.02206       25.20917       37.89773
O         97.90465       26.39702       38.13505
O         98.20864       24.35815       38.90846
H         98.52212       26.15640       34.11432
H         97.51390       23.45833       34.22222
H         96.03829       24.37466       36.07996
H         96.59562       26.03107       35.65886
H         99.01811       25.20593       36.05559
H         98.33562       23.61527       36.51981
N         95.21147       25.66804       33.09405
C         94.00931       25.74782       32.29148
H         93.21491       26.26290       32.86941
H         94.22488       26.33489       31.37353
H         93.63599       24.74807       31.98624
H         95.61933       26.54854       33.41958
Ca        98.88541       25.25792       40.82324
O         99.27476       29.29641       40.34626
H         99.56509       28.66009       41.04023
H        100.05033       29.89856       40.22032
O        100.98940       26.87242       38.53549
H        100.96110       26.21892       37.79226
H        101.01209       26.31516       39.35265

Ca 1.0



