%chk=holoCaM-CaMKII.loop1.water2.frame31.chk
%nprocshared=20
%mem=10GB
%nosave
#b3lyp/svp scf=(tight,noincore,xqc) Test 
#IOP(5/87=12) Density=Current Pop=(MK,readradii) iop(6/33=2) iop(6/42=6)

holoCaM-CaMKII.loop1.water2.frame31 

   0  1 
C         25.61664       66.78707       21.02575
C         25.65287       65.77522       19.92904
O         26.02448       66.09701       18.80959
H         24.57633       66.86342       21.40620
H         26.28141       66.45131       21.85027
H         25.95185       67.77938       20.66303
N         25.26332       64.50521       20.20055
C         25.28392       63.43217       19.22586
C         24.40691       63.78834       18.02583
O         23.25520       64.15773       18.19957
C         24.89535       62.12170       19.93362
C         25.22017       60.92603       19.12404
O         25.18137       59.82305       19.62977
O         25.58600       61.07345       17.85166
H         24.95863       64.29181       21.16324
H         26.33967       63.30935       18.89165
H         23.83337       62.11434       20.25059
H         25.54736       62.03382       20.83064
N         24.94524       63.75300       16.77645
C         24.34910       64.31197       15.56709
C         23.95791       63.21552       14.57812
O         22.86918       63.29042       14.02398
C         25.39775       65.28660       14.98969
C         24.99512       65.94175       13.67004
C         26.09315       66.91254       13.20084
C         25.82129       67.48052       11.79976
N         25.92287       66.44976       10.76181
H         25.89472       63.36886       16.68377
H         23.43160       64.89949       15.79941
H         26.34644       64.73354       14.81293
H         25.59117       66.07734       15.74974
H         24.03792       66.49561       13.78539
H         24.85937       65.13003       12.93166
H         27.08540       66.40906       13.18848
H         26.14883       67.75421       13.92728
H         26.58381       68.26288       11.58963
H         24.81854       67.96053       11.77034
H         25.78614       66.89297        9.82585
H         26.87140       66.00830       10.78812
H         25.19046       65.71571       10.87720
N         24.76350       62.13638       14.36507
C         24.40326       60.99439       13.52187
C         23.84659       59.82452       14.34295
O         23.47462       58.82326       13.74599
C         25.58373       60.58825       12.59821
C         26.87591       60.20147       13.27868
O         27.00510       60.22097       14.60838
O         27.83156       59.85833       12.60587
H         25.62289       62.07896       14.91773
H         23.56523       61.27800       12.84323
H         25.80828       61.43832       11.91999
H         25.26103       59.72815       11.97071
N         23.64325       59.92191       15.69143
C         22.88881       58.94022       16.46199
C         23.62144       57.66870       16.85382
O         22.98105       56.82032       17.45923
H         23.87617       60.80037       16.16824
H         21.95838       58.69069       15.90770
H         22.57669       59.41654       17.41728
N         24.94354       57.45947       16.59627
C         25.66559       56.24848       17.01591
C         25.85025       56.08827       18.54180
O         26.52707       55.14594       18.93291
C         27.03271       56.14893       16.29208
C         27.91751       57.34038       16.47195
O         28.23394       57.77109       17.69834
O         28.35546       57.92821       15.49709
H         25.45019       58.17581       16.05781
H         25.10303       55.35423       16.66727
H         26.85612       56.01332       15.20354
H         27.57555       55.24887       16.65229
N         25.25936       56.90068       19.46714
C         25.42263       56.71125       20.90427
C         26.77400       57.14967       21.44016
O         27.06976       56.81724       22.57912
H         24.60840       57.62693       19.16476
H         25.22223       55.64715       21.15699
H         24.66983       57.32009       21.45153
N         27.60476       57.96684       20.72765
C         28.83253       58.54718       21.28521
C         29.06504       59.96833       20.76448
O         28.34888       60.41585       19.87895
C         30.06460       57.63464       21.03005
C         29.97733       56.27196       21.73187
O         30.28570       57.45286       19.65718
H         27.26357       58.30922       19.82258
H         28.69660       58.67934       22.38130
H         30.96272       58.13430       21.44994
H         29.61340       56.80054       19.33249
H         29.85342       56.41018       22.82544
H         29.13184       55.67030       21.33692
H         30.91359       55.70265       21.54848
N         30.02777       60.76162       21.32891
C         30.23391       62.16085       20.95557
C         31.67511       62.35796       20.48980
O         32.58782       62.10825       21.26513
C         29.90651       63.10736       22.15404
C         28.51052       62.80620       22.76718
C         29.95969       64.57828       21.68102
C         28.25871       63.54947       24.08514
H         30.60103       60.37868       22.09560
H         29.54136       62.43719       20.14281
H         30.67072       62.93373       22.94360
H         28.42929       61.72676       23.01315
H         27.71106       63.05257       22.03429
H         29.16912       64.76083       20.91961
H         29.80943       65.29172       22.51317
H         30.93936       64.82063       21.23019
H         27.25198       63.28798       24.47312
H         29.01356       63.24404       24.84214
H         28.29318       64.64953       23.96492
N         31.95030       62.82488       19.23744
C         33.30707       63.11430       18.76259
C         33.72684       64.52377       19.16504
O         32.92006       65.26401       19.69918
C         33.37190       63.00176       17.20617
C         33.11696       61.57619       16.71961
O         32.42796       63.87116       16.63795
H         31.15956       63.04019       18.61591
H         34.02730       62.39247       19.20626
H         34.38605       63.29149       16.85558
H         32.31432       63.65206       15.67725
H         33.85312       60.87403       17.15956
H         32.08610       61.28278       16.98314
H         33.21779       61.53784       15.61200
N         34.97846       64.97784       18.86706
C         35.37559       66.38747       18.95008
C         34.48646       67.21652       18.04009
O         34.04410       68.28481       18.43789
C         36.84905       66.57845       18.49194
C         37.82953       66.07115       19.56515
O         37.04614       65.95728       17.23828
H         35.64928       64.30313       18.47070
H         35.28340       66.77774       19.98917
H         37.05844       67.66620       18.37823
H         37.95428       65.55986       17.19741
H         37.68769       66.65163       20.50268
H         37.67835       64.99351       19.77596
H         38.87656       66.23458       19.22908
N         34.17595       66.75404       16.79857
C         33.37084       67.47981       15.82324
C         32.02102       67.86946       16.41519
O         31.63868       69.02882       16.36559
C         33.17518       66.63468       14.52784
C         34.46236       66.03649       13.90150
C         35.64359       67.01490       13.85097
C         36.86457       66.38707       13.16251
N         38.08165       67.13451       13.48175
H         34.53360       65.82492       16.54466
H         33.90989       68.40734       15.53381
H         32.68710       67.29108       13.77743
H         32.48777       65.78161       14.71199
H         34.21547       65.64976       12.88892
H         34.79597       65.15773       14.49676
H         35.92226       67.25448       14.89766
H         35.36915       67.95818       13.33071
H         36.68960       66.37160       12.06320
H         37.01102       65.33804       13.50367
H         38.32821       66.96865       14.48636
H         38.86906       66.78640       12.88916
H         37.94909       68.15881       13.32198
N         31.26906       66.92043       17.02205
C         29.96871       67.11607       17.65386
C         30.05521       68.07590       18.83154
O         29.21512       68.96073       18.91743
C         29.40269       65.72117       18.02637
C         29.02994       64.99776       16.70448
C         28.63987       63.55594       16.81102
O         28.68953       62.89666       17.97700
O         28.29745       62.95972       15.80249
H         31.67028       65.98079       17.05304
H         29.25028       67.55834       16.92821
H         28.49078       65.80902       18.64875
H         30.15891       65.16007       18.61654
H         29.87842       65.02679       15.99099
H         28.18078       65.55415       16.25329
N         31.07173       68.01205       19.73511
C         31.23194       68.94642       20.83365
H         32.17249       69.52123       20.69153
H         30.39256       69.66979       20.90476
H         31.29734       68.38887       21.79078
H         31.79911       67.30265       19.61736
Ca        27.30585       60.22409       16.79831
O         30.18535       60.47702       14.82420
H         30.64038       59.60093       14.89532
H         30.02846       60.58994       13.85432
O         30.65191       59.30931       17.49235
H         30.67308       59.61570       18.43207
H         31.58508       59.04129       17.29834

Ca 1.0



