%chk=holoCaM-CaMKII.loop2.water2.frame163.chk
%nprocshared=20
%mem=10GB
%nosave
#b3lyp/svp scf=(tight,noincore,xqc) Test 
#IOP(5/87=12) Density=Current Pop=(MK,readradii) iop(6/33=2) iop(6/42=6)

holoCaM-CaMKII.loop2.water2.frame163 

   -2  1 
C        109.53188       78.67331        4.52790
C        109.54765       80.06873        3.96333
O        108.53220       80.54376        3.47991
H        109.81708       78.70740        5.60300
H        108.52513       78.21281        4.44898
H        110.26665       78.03792        3.99006
N        110.68883       80.79884        4.04524
C        110.81891       82.19644        3.63925
C        110.79820       82.39590        2.12264
O        111.56234       81.74579        1.42369
C        112.13732       82.73979        4.22104
C        112.38779       84.15628        3.82170
O        113.40722       84.43628        3.21330
O        111.47427       85.11851        4.00550
H        111.49653       80.34566        4.50316
H        110.00673       82.79086        4.11275
H        112.99003       82.11792        3.86772
H        112.09584       82.67864        5.32726
N        110.01093       83.37190        1.57116
C        110.00847       83.73718        0.15343
C        110.40486       85.20227       -0.09576
O        110.45523       85.58999       -1.25508
C        108.59730       83.51570       -0.40499
H        109.39524       83.90675        2.19500
H        110.71736       83.09448       -0.41101
H        107.86771       84.17013        0.12282
H        108.56015       83.75371       -1.49004
H        108.28965       82.45854       -0.26758
N        110.63819       86.08455        0.92154
C        110.84987       87.52151        0.73703
C        112.15092       88.01194        1.38391
O        112.96215       88.58544        0.66963
C        109.57347       88.29639        1.19393
C        108.89096       87.72749        2.41886
O        109.49837       87.73290        3.61021
O        107.81251       87.16682        2.30588
H        110.56873       85.75455        1.88708
H        110.95285       87.77317       -0.34347
H        108.83628       88.18105        0.36826
H        109.77690       89.38496        1.29369
N        112.41608       87.85707        2.71188
C        113.58959       88.40193        3.38811
C        113.20813       89.40727        4.47050
O        114.09861       89.90764        5.14238
H        111.75222       87.34529        3.29319
H        114.27345       88.91051        2.67535
H        114.14818       87.56164        3.85461
N        111.90677       89.76499        4.68270
C        111.43888       90.74694        5.66388
C        111.63261       90.34546        7.13244
O        111.25002       91.12820        7.99139
C        109.95837       91.08930        5.35615
C        108.99201       89.93782        5.47922
N        107.73857       90.06855        4.99329
O        109.33749       88.87753        5.97763
H        111.19796       89.37383        4.05610
H        112.00442       91.68985        5.49789
H        109.92943       91.43093        4.29686
H        109.59803       91.92870        5.98657
H        107.43194       90.94422        4.54662
H        107.08601       89.27798        5.02442
N        112.25970       89.19204        7.50720
C        112.61082       88.89089        8.88749
C        111.51222       88.27179        9.72597
O        111.79715       87.98992       10.88154
H        112.63994       88.56601        6.79089
H        113.01316       89.80463        9.37852
H        113.43378       88.14405        8.87806
N        110.26440       87.99565        9.24541
C        109.23738       87.33314       10.05606
C        108.77305       86.03266        9.41224
O        109.12859       85.75990        8.27321
C        108.02031       88.29000       10.28737
C        108.44914       89.55273       11.03490
O        107.35711       88.68146        9.10361
H        110.03398       88.25260        8.27765
H        109.64698       87.06028       11.05212
H        107.28061       87.76521       10.92907
H        107.73387       88.20869        8.32107
H        108.93045       89.28648       11.99936
H        109.15864       90.14873       10.42274
H        107.55779       90.18109       11.24886
N        107.89731       85.22131       10.07917
C        107.15959       84.14673        9.42766
C        105.80245       84.73393        9.14565
O        105.06069       85.01261       10.07997
C        107.04564       82.86242       10.30852
C        108.43060       82.20089       10.50246
C        106.03972       81.86008        9.68905
C        108.40966       81.03003       11.49347
H        107.59926       85.49710       11.02741
H        107.63371       83.87625        8.45783
H        106.65025       83.16471       11.30438
H        109.14220       82.95433       10.90096
H        108.81533       81.84154        9.52261
H        106.37852       81.52592        8.68590
H        105.88732       80.97601       10.33768
H        105.03351       82.31555        9.58701
H        107.76510       80.19838       11.14456
H        109.43490       80.62127       11.60832
H        108.05214       81.37531       12.48697
N        105.44393       85.02659        7.86967
C        104.18051       85.67304        7.56313
C        103.04010       84.68154        7.68425
O        103.27364       83.49866        7.88592
C        104.21525       86.29908        6.15649
C        105.24416       87.38903        6.06327
O        104.89076       88.53707        5.84661
O        106.55383       87.11231        6.21316
H        106.11749       84.84774        7.11142
H        104.01708       86.50453        8.28613
H        103.22909       86.76169        5.94356
H        104.42337       85.52494        5.38588
N        101.75679       85.11962        7.57287
C        100.60596       84.23201        7.64342
C        100.63732       83.19730        6.51883
O        100.45805       82.03052        6.84244
C         99.29579       85.04086        7.64951
C         98.10812       84.12357        7.74060
C         97.42486       83.75609        6.57118
C         97.69537       83.60262        8.97783
C         96.34174       82.87890        6.63685
C         96.60134       82.73409        9.04087
C         95.92686       82.37103        7.87085
H        101.59377       86.12860        7.44217
H        100.63214       83.69448        8.61957
H         99.20484       85.67165        6.75030
H         99.28566       85.74779        8.50852
H         97.74533       84.13583        5.60833
H         98.21557       83.87249        9.88923
H         95.82786       82.59184        5.72927
H         96.27878       82.33920        9.99544
H         95.08504       81.69361        7.91892
N        100.85758       83.49374        5.19620
C        100.98663       82.48626        4.14999
C        102.01667       81.42124        4.49380
O        101.73241       80.23896        4.38206
C        101.47994       83.28413        2.92718
C        100.84515       84.63052        3.15517
C        101.06764       84.82194        4.64978
H         99.98618       82.04105        3.95019
H        102.57766       83.46568        2.98988
H        101.27311       82.80813        1.94547
H        101.24141       85.45516        2.52386
H         99.75232       84.52459        2.97135
H        102.10863       85.12421        4.86068
H        100.35428       85.58578        4.99499
N        103.25736       81.80678        4.90729
C        104.36989       80.89060        5.15360
C        104.14329       79.98356        6.35704
O        104.92074       79.05590        6.53589
C        105.66274       81.70934        5.36091
C        105.99605       82.55802        4.11458
C        107.10751       83.53020        4.35382
O        107.41184       84.31059        3.46926
O        107.73337       83.59877        5.54237
H        103.41931       82.81797        5.01232
H        104.49593       80.25173        4.25095
H        106.52490       81.04100        5.58057
H        105.50495       82.37618        6.23873
H        105.13142       83.17499        3.80580
H        106.25089       81.88946        3.26487
N        103.12285       80.19604        7.23346
C        102.83747       79.35271        8.37439
H        101.79843       78.96893        8.28798
H        103.52673       78.48674        8.44601
H        102.91730       79.95404        9.30419
H        102.51690       81.00781        7.10836
Ca       109.52461       85.85029        4.84435
O        111.87521       86.08889        6.83388
H        112.78493       86.24693        6.47741
H        111.88035       85.13646        7.09809
O        110.16538       83.15067        7.19052
H        110.94996       82.64392        7.51705
H        109.51719       82.45253        6.92511

Ca 1.0



