%chk=holoCaM-CaMKII.loop4.water2.frame173.chk
%nprocshared=20
%mem=10GB
%nosave
#b3lyp/svp scf=(tight,noincore,xqc) Test 
#IOP(5/87=12) Density=Current Pop=(MK,readradii) iop(6/33=2) iop(6/42=6)

holoCaM-CaMKII.loop4.water2.frame173 

   -3  1 
C         -1.54244       45.23361       19.26702
C         -2.07777       43.94093       19.81139
O         -1.77375       42.88422       19.28158
H         -0.87857       45.05922       18.39535
H         -2.39281       45.87380       18.94561
H         -0.97352       45.76784       20.05734
N         -2.90540       43.97057       20.88640
C         -3.53752       42.79756       21.48603
C         -4.43734       42.09362       20.46686
O         -5.27103       42.73953       19.84871
C         -4.28480       43.26188       22.75416
C         -5.20303       42.24328       23.34545
O         -6.37101       42.54636       23.52100
O         -4.82762       40.98472       23.62049
H         -3.10396       44.89940       21.29324
H         -2.75784       42.08109       21.82921
H         -4.90381       44.15640       22.51973
H         -3.52916       43.56255       23.51213
N         -4.30472       40.74675       20.26161
C         -5.01952       39.96826       19.24347
C         -6.04750       39.02165       19.87599
O         -7.03833       38.71578       19.22795
C         -4.00861       39.10830       18.39961
C         -2.79257       39.93229       17.90005
C         -4.71946       38.41155       17.21741
C         -1.73079       39.08040       17.18917
H         -3.64052       40.24857       20.86172
H         -5.55846       40.66514       18.56412
H         -3.60370       38.31651       19.06878
H         -2.28552       40.38070       18.77801
H         -3.12133       40.75181       17.22691
H         -4.03476       37.73296       16.67243
H         -5.54681       37.76216       17.56058
H         -5.12052       39.16636       16.50833
H         -2.10348       38.66856       16.23077
H         -0.84320       39.70474       16.95658
H         -1.41144       38.23749       17.83709
N         -5.84819       38.47604       21.10980
C         -6.70168       37.45268       21.72037
C         -7.50804       37.99863       22.89679
O         -8.23194       37.23094       23.51558
C         -5.84385       36.20505       22.08119
C         -4.56555       36.56045       22.79753
O         -4.60313       37.27225       23.93466
O         -3.49290       36.36104       22.24981
H         -5.03724       38.78822       21.65556
H         -7.47925       37.10304       21.00600
H         -5.55936       35.70984       21.12616
H         -6.44083       35.47539       22.66854
N         -7.53624       39.32931       23.18287
C         -8.44356       39.92868       24.14620
C         -8.15630       39.57487       25.58264
O         -9.07350       39.19207       26.29459
H         -6.96774       39.98060       22.62577
H         -9.49617       39.68867       23.87979
H         -8.33901       41.03147       24.07549
N         -6.91382       39.77697       26.09565
C         -6.60261       39.74963       27.52059
C         -6.07240       41.11926       27.97007
O         -5.66835       41.25116       29.11666
C         -5.65691       38.57449       27.85573
C         -4.29095       38.60126       27.23300
O         -3.93154       39.52386       26.52439
O         -3.44390       37.58309       27.47457
H         -6.16109       40.03945       25.44689
H         -7.52129       39.55470       28.11711
H         -6.15881       37.63386       27.53981
H         -5.52270       38.53024       28.95844
N         -6.11560       42.20369       27.13303
C         -5.72855       43.55543       27.50229
C         -4.23682       43.81743       27.53401
O         -3.88252       44.97283       27.72567
H         -6.54217       42.11414       26.20190
H         -6.21115       43.84333       28.46085
H         -6.12435       44.23812       26.71741
N         -3.30136       42.84237       27.34432
C         -1.86356       43.11108       27.30349
C         -1.25917       42.62621       25.99429
O         -1.95789       42.00484       25.20224
C         -1.19069       42.48941       28.54327
C         -1.59818       43.28105       29.80196
C         -0.99679       42.72503       31.06273
N         -1.38592       41.52101       31.54006
O         -0.17393       43.38444       31.68059
H         -3.60547       41.86793       27.22895
H         -1.66859       44.20618       27.32080
H         -0.08530       42.55701       28.45207
H         -1.47001       41.41518       28.62329
H         -2.70161       43.30423       29.92620
H         -1.24483       44.32828       29.66740
H         -2.10332       40.96746       31.04983
H         -0.98946       41.15554       32.41865
N          0.02774       42.95935       25.66627
C          0.62772       42.66220       24.36681
C          1.90733       41.85288       24.55094
O          2.86762       42.35989       25.11533
C          0.90471       43.98728       23.59640
C          1.46446       43.72025       22.18941
C         -0.37386       44.83188       23.46443
H          0.58297       43.51333       26.33727
H         -0.08568       42.07306       23.75291
H          1.64976       44.58755       24.16456
H          0.73023       43.14991       21.58190
H          1.67626       44.68023       21.67173
H          2.41443       43.15207       22.23998
H         -0.77716       45.10429       24.46198
H         -0.15793       45.77793       22.92309
H         -1.15142       44.27134       22.90779
N          1.97466       40.56903       24.10040
C          3.15443       39.70824       24.21572
C          4.23393       40.14701       23.21858
O          3.96990       41.00916       22.39891
C          2.67133       38.24239       23.98392
C          3.64260       37.11350       24.25343
N          3.43032       36.25424       25.27760
O          4.59590       36.92894       23.51746
H          1.11981       40.16565       23.69711
H          3.53554       39.77895       25.25821
H          2.27819       38.13024       22.95311
H          1.81229       38.09519       24.67366
H          2.62169       36.36270       25.90629
H          4.08068       35.47166       25.44288
N          5.47111       39.57653       23.22112
C          6.50670       39.81606       22.20861
C          6.00314       39.47467       20.81166
O          6.08108       40.32169       19.93274
C          7.73763       38.93453       22.53534
C          8.78263       38.90031       21.44016
C          9.47802       40.05604       21.04905
C          9.06168       37.68178       20.79399
C         10.43860       39.98849       20.03096
C         10.01697       37.61760       19.77935
C         10.71143       38.77110       19.39449
O         11.63978       38.71986       18.41779
H          5.68321       38.91540       23.97935
H          6.81582       40.88558       22.22112
H          7.37511       37.89608       22.70086
H          8.19751       39.27492       23.48766
H          9.27951       41.00496       21.53038
H          8.53618       36.77626       21.07186
H         10.97289       40.88258       19.73580
H         10.21524       36.66962       19.29450
H         11.85706       37.89519       17.95887
N          5.49300       38.24165       20.53837
C          5.03428       37.81613       19.21788
C          4.04024       38.79803       18.63163
O          4.17575       39.17283       17.47520
C          4.44770       36.37899       19.28016
C          3.14939       36.24340       20.10244
C          2.72053       34.81045       20.22154
O          2.46185       34.15709       19.22342
O          2.60212       34.24376       21.43787
H          5.43067       37.57024       21.31339
H          5.91378       37.76923       18.53729
H          5.22600       35.71492       19.71708
H          4.24295       36.02609       18.24527
H          2.32709       36.80554       19.61266
H          3.29945       36.64813       21.12353
N          3.03305       39.28335       19.40288
C          2.02124       40.21163       18.92096
C          2.67785       41.50287       18.46091
O          2.45734       41.91088       17.32943
C          0.93592       40.45153       19.99929
C          0.31283       39.11274       20.45660
C         -0.91070       39.27100       21.29970
O         -1.92160       38.65994       21.00329
O         -0.89441       40.02062       22.41357
H          3.00312       38.97910       20.38455
H          1.49339       39.75010       18.05602
H          0.15000       41.09229       19.54637
H          1.35715       40.97420       20.88480
H          1.04007       38.53932       21.05641
H          0.04967       38.49732       19.57293
N          3.56085       42.15213       19.26922
C          4.30587       43.33227       18.88146
H          5.39189       43.09300       18.88599
H          4.03372       43.69301       17.86834
H          4.12072       44.14376       19.61501
H          3.75898       41.76378       20.19537
Ca        -3.46605       39.21365       23.79422
O         -1.03602       36.97835       24.23931
H         -1.73745       36.28148       24.29056
H         -0.40238       36.64373       23.55600
O         -0.40414       39.25671       26.43139
H          0.23005       38.52618       26.64087
H         -1.28877       38.88803       26.67525

Ca 1.0



