%chk=holoCaM-CaMKII.loop1.water2.frame90.chk
%nprocshared=20
%mem=10GB
%nosave
#b3lyp/svp scf=(tight,noincore,xqc) Test 
#IOP(5/87=12) Density=Current Pop=(MK,readradii) iop(6/33=2) iop(6/42=6)

holoCaM-CaMKII.loop1.water2.frame90 

   0  1 
C          4.65341       52.07656       70.59091
C          3.46296       52.56005       71.35938
O          3.03175       51.85843       72.26384
H          5.50566       51.93248       71.28856
H          4.41142       51.10619       70.10858
H          4.95144       52.80363       69.80812
N          2.87854       53.76051       71.06954
C          1.74189       54.26399       71.82779
C          0.56680       53.32300       71.65346
O          0.11740       53.16675       70.52568
C          1.36658       55.70388       71.38174
C          0.19743       56.34897       72.10881
O         -0.44846       57.19992       71.52458
O         -0.23646       55.90466       73.30754
H          3.27564       54.33949       70.31437
H          2.08145       54.27418       72.86067
H          1.08951       55.63811       70.30626
H          2.24164       56.38341       71.45075
N          0.05984       52.61672       72.71161
C         -0.95505       51.58112       72.54235
C         -2.24313       51.84994       73.31589
O         -3.19124       51.09851       73.13608
C         -0.31452       50.22161       72.88226
C         -0.86151       48.97418       72.14743
C         -0.57608       48.96844       70.62084
C         -1.71551       49.50070       69.72564
N         -1.30052       49.51793       68.32210
H          0.47049       52.75379       73.64211
H         -1.22952       51.57652       71.49119
H         -0.32868       50.07650       73.98590
H          0.75943       50.26307       72.59323
H         -1.92033       48.73196       72.37579
H         -0.24733       48.14550       72.56649
H         -0.43464       47.91198       70.30456
H          0.38492       49.49331       70.41915
H         -2.05546       50.51441       69.98138
H         -2.59665       48.83341       69.84603
H         -2.10437       49.82710       67.72903
H         -0.51366       50.19681       68.19566
H         -0.99602       48.56630       68.01481
N         -2.37108       52.92649       74.14920
C         -3.62942       53.33280       74.77371
C         -4.08836       54.69550       74.23710
O         -5.13341       55.16833       74.66165
C         -3.51286       53.29155       76.31254
C         -2.38849       54.11837       76.85273
O         -2.36419       55.31989       76.66009
O         -1.40769       53.53347       77.56609
H         -1.55754       53.53487       74.31607
H         -4.44611       52.62405       74.51451
H         -3.35049       52.23729       76.62583
H         -4.46695       53.63327       76.77127
N         -3.40934       55.33947       73.23963
C         -3.89594       56.52861       72.56050
C         -3.92959       57.77845       73.40967
O         -4.98748       58.37769       73.53451
H         -2.55349       54.92450       72.84953
H         -4.90197       56.31562       72.13879
H         -3.22038       56.74396       71.70339
N         -2.78350       58.27575       73.95065
C         -2.68535       59.57355       74.62009
C         -1.70978       60.50978       73.88780
O         -1.45176       61.59837       74.38229
C         -2.28044       59.37675       76.09484
C         -0.99640       58.61948       76.27049
O         -0.96776       57.51324       77.03200
O          0.02834       59.00559       75.74022
H         -1.91860       57.72720       73.84214
H         -3.66798       60.09359       74.63334
H         -3.09051       58.82688       76.62205
H         -2.18411       60.37282       76.57881
N         -1.15224       60.16328       72.69285
C         -0.20600       60.97515       71.94559
C          1.12793       61.12644       72.64373
O          1.68283       62.21046       72.59872
H         -1.42464       59.28026       72.24906
H         -0.64344       61.96352       71.68334
H          0.00539       60.44560       70.99071
N          1.73627       60.04455       73.21000
C          3.09292       60.01547       73.78782
C          3.51830       58.56893       74.09182
O          2.70036       57.66140       74.03250
C          3.27696       60.86953       75.08972
C          3.36633       62.39466       74.92760
O          2.31737       60.53572       76.05515
H          1.20430       59.16445       73.15182
H          3.80151       60.37047       73.00758
H          4.27349       60.61525       75.50868
H          1.47513       60.99665       75.80063
H          4.14531       62.65617       74.18005
H          2.40103       62.85858       74.66411
H          3.65554       62.84457       75.90145
N          4.82491       58.28175       74.37502
C          5.32572       56.92516       74.59585
C          6.00867       56.85215       75.95477
O          7.01492       57.51905       76.15588
C          6.29523       56.53686       73.43700
C          5.52784       56.55452       72.08591
C          6.94119       55.15788       73.68506
C          6.41420       56.33456       70.85918
H          5.51193       59.05144       74.37927
H          4.48780       56.19266       74.58590
H          7.10944       57.29534       73.39590
H          5.04789       57.54604       71.94572
H          4.72680       55.78373       72.10013
H          7.51601       55.15856       74.63262
H          6.16825       54.36196       73.73346
H          7.67305       54.90898       72.89149
H          6.88475       55.33182       70.86479
H          5.79126       56.40481       69.94228
H          7.20172       57.11647       70.81166
N          5.50215       56.05577       76.94081
C          6.12221       55.92621       78.26112
C          7.31208       54.97481       78.21109
O          7.58203       54.39476       77.17190
C          5.10287       55.41248       79.32238
C          3.87692       56.32210       79.45477
O          4.71819       54.08403       79.07582
H          4.62310       55.55778       76.74992
H          6.45279       56.93305       78.60052
H          5.58968       55.42415       80.31952
H          4.05029       54.08686       78.34694
H          4.18689       57.35789       79.70639
H          3.30643       56.33145       78.50689
H          3.21077       55.94193       80.25791
N          8.04219       54.73315       79.33498
C          9.08727       53.71343       79.42159
C          8.50393       52.32621       79.20242
O          9.05448       51.56108       78.42343
C          9.78024       53.74005       80.81061
C         10.57173       55.03309       81.02181
O          8.83312       53.58827       81.83910
H          7.81355       55.27241       80.18238
H          9.87577       53.90066       78.65791
H         10.50652       52.89213       80.83818
H          9.31734       53.24676       82.63546
H          9.90761       55.92111       80.99895
H         11.08395       54.99927       82.00643
H         11.34396       55.13718       80.23016
N          7.39158       51.93858       79.88663
C          6.82583       50.59247       79.84380
C          6.51198       50.17998       78.42704
O          6.94828       49.12757       77.98244
C          5.52891       50.49485       80.69936
C          5.65723       50.98560       82.15705
C          6.85287       50.37427       82.89372
C          6.95466       50.91122       84.32407
N          8.15582       50.39723       84.97990
H          6.93395       52.64816       80.47211
H          7.56629       49.87444       80.25723
H          5.21040       49.42903       80.70824
H          4.70793       51.08488       80.23332
H          4.71183       50.74651       82.69206
H          5.75948       52.09027       82.17664
H          7.78747       50.65864       82.36639
H          6.76325       49.26669       82.90695
H          6.05203       50.61218       84.90125
H          7.00631       52.02346       84.30085
H          8.20139       50.77083       85.95480
H          8.13012       49.35240       85.01211
H          9.00744       50.71219       84.45917
N          5.75237       50.99686       77.66157
C          5.34921       50.70591       76.29580
C          6.57787       50.54137       75.41623
O          6.71919       49.49569       74.79751
C          4.38113       51.80834       75.81744
C          3.10983       51.80086       76.71291
C          2.14595       52.86305       76.32096
O          2.54006       54.14532       76.25469
O          1.01977       52.55758       75.96835
H          5.45953       51.88609       78.08683
H          4.77759       49.75079       76.27153
H          4.08964       51.61898       74.76150
H          4.88714       52.80025       75.86459
H          3.34879       51.96821       77.77715
H          2.61518       50.80845       76.63132
N          7.54401       51.49994       75.37558
C          8.79372       51.35189       74.65350
H          9.63774       51.39132       75.37628
H          8.85950       50.38710       74.10743
H          8.90829       52.18144       73.92653
H          7.41324       52.35869       75.92103
Ca         1.29031       55.17665       74.75732
O          1.70064       58.12018       77.88804
H          2.57269       58.53517       77.67236
H          1.33812       58.66485       78.63042
O          0.96040       54.89525       78.67442
H          1.12890       54.24497       79.40180
H          0.13142       55.36424       78.94392

Ca 1.0



