%chk=holoCaM-CaMKII.loop1.water2.frame82.chk
%nprocshared=20
%mem=10GB
%nosave
#b3lyp/svp scf=(tight,noincore,xqc) Test 
#IOP(5/87=12) Density=Current Pop=(MK,readradii) iop(6/33=2) iop(6/42=6)

holoCaM-CaMKII.loop1.water2.frame82 

   0  1 
C         -2.30166       53.50224       76.51004
C         -3.31990       53.01328       77.49602
O         -2.99239       52.20227       78.35059
H         -1.31496       53.02560       76.68886
H         -2.63627       53.26766       75.47796
H         -2.18980       54.60291       76.61336
N         -4.59070       53.49399       77.44161
C         -5.62508       53.12099       78.39686
C         -5.94866       51.63321       78.30766
O         -6.42370       51.18049       77.27508
C         -6.88107       53.97786       78.14011
C         -7.99363       53.73131       79.10963
O         -9.02221       54.37312       79.00733
O         -7.88084       52.81000       80.08104
H         -4.81140       54.19006       76.71115
H         -5.25244       53.37042       79.41647
H         -7.26134       53.78828       77.11251
H         -6.59922       55.05064       78.21748
N         -5.70225       50.81522       79.37202
C         -5.98641       49.38317       79.37050
C         -7.49039       49.11890       79.36799
O         -7.99090       48.55213       78.40682
C         -5.30322       48.72230       80.59984
C         -5.58915       47.21952       80.79551
C         -5.13008       46.29713       79.65584
C         -3.60806       46.30998       79.44924
N         -3.21433       45.32994       78.43749
H         -5.25237       51.22725       80.20361
H         -5.52819       48.93919       78.45848
H         -5.64109       49.23381       81.52623
H         -4.20718       48.89176       80.53673
H         -6.68130       47.07688       80.94170
H         -5.09023       46.89156       81.73376
H         -5.64756       46.56517       78.71081
H         -5.43490       45.26309       79.92954
H         -3.10142       46.06137       80.40856
H         -3.27601       47.31979       79.12564
H         -3.67375       45.54953       77.52404
H         -2.17666       45.36225       78.31361
H         -3.48557       44.36755       78.74598
N         -8.25405       49.43229       80.45561
C         -9.65137       49.01735       80.60626
C        -10.66026       49.91372       79.88895
O        -11.84667       49.62960       79.98878
C        -10.01185       48.86119       82.10721
C         -9.90463       50.10635       82.94570
O         -9.50493       51.15598       82.47391
O        -10.23501       50.05202       84.24958
H         -7.77237       49.83926       81.26899
H         -9.76065       47.99023       80.19001
H         -9.34128       48.09671       82.55611
H        -11.05301       48.47892       82.18631
N        -10.29139       50.98774       79.13377
C        -11.25817       51.82206       78.43109
C        -12.12617       52.69469       79.32915
O        -13.01061       53.34775       78.79401
H         -9.29531       51.18599       78.98836
H        -11.90444       51.16541       77.80865
H        -10.71786       52.50705       77.74292
N        -11.93332       52.79188       80.67906
C        -12.76491       53.62695       81.55378
C        -12.74816       55.11437       81.20502
O        -13.60972       55.82799       81.70075
C        -12.40679       53.40289       83.04487
C        -10.95599       53.64232       83.41602
O        -10.58630       53.37126       84.54595
O        -10.05106       54.06103       82.50377
H        -11.18730       52.23445       81.10476
H        -13.81622       53.28692       81.41348
H        -12.62275       52.33619       83.27458
H        -13.06578       54.02378       83.69041
N        -11.82720       55.65215       80.35819
C        -11.86193       57.02607       79.88272
C        -10.66892       57.84870       80.31905
O        -10.50394       58.93527       79.78661
H        -11.07403       55.05783       79.99887
H        -12.78164       57.56277       80.20020
H        -11.87319       56.98004       78.77213
N         -9.82995       57.43640       81.31359
C         -8.67829       58.21725       81.76979
C         -7.41563       57.37240       81.71193
O         -7.49230       56.20356       81.36947
C         -8.93223       58.75194       83.20256
C        -10.07824       59.77589       83.23701
O         -9.16436       57.70194       84.10889
H        -10.02836       56.55162       81.79890
H         -8.50942       59.09376       81.10752
H         -8.03177       59.30113       83.55032
H        -10.09787       57.38528       83.98960
H         -9.84249       60.63175       82.56860
H        -11.03570       59.31984       82.90814
H        -10.20515       60.16401       84.26991
N         -6.20110       57.92250       82.01866
C         -4.95542       57.16142       81.99752
C         -4.33218       57.23022       83.38473
O         -3.94540       58.30908       83.81114
C         -3.98943       57.72516       80.91067
C         -4.68678       57.76417       79.52373
C         -2.69826       56.88237       80.85152
C         -3.84969       58.44089       78.43537
H         -6.15267       58.92156       82.26597
H         -5.16153       56.09980       81.74289
H         -3.72453       58.76948       81.18849
H         -5.62319       58.35667       79.60326
H         -4.95457       56.73546       79.19977
H         -2.92855       55.83809       80.55036
H         -1.96640       57.30827       80.13763
H         -2.19366       56.86494       81.83625
H         -2.92148       57.87590       78.21941
H         -4.43810       58.48873       77.49485
H         -3.58989       59.47730       78.74049
N         -4.23004       56.11126       84.15884
C         -3.63233       56.12066       85.49431
C         -2.12701       56.31863       85.39912
O         -1.59495       56.39644       84.30160
C         -3.92201       54.79383       86.25293
C         -5.41485       54.51588       86.41463
O         -3.32315       53.71822       85.58791
H         -4.61429       55.23375       83.79338
H         -4.08609       56.94567       86.08662
H         -3.49869       54.88322       87.28000
H         -3.05499       53.05335       86.27481
H         -5.55679       53.58431       87.00234
H         -5.90307       55.35400       86.95341
H         -5.90110       54.37174       85.42916
N         -1.36459       56.36193       86.52540
C          0.09065       56.40901       86.48455
C          0.63759       55.17490       85.77918
O          1.37132       55.33103       84.81282
C          0.69649       56.53149       87.91136
C          0.34971       57.87945       88.55444
O          0.24404       55.48634       88.73451
H         -1.83533       56.32845       87.44101
H          0.41688       57.30917       85.91473
H          1.80693       56.47809       87.81281
H          0.84846       55.44984       89.51984
H         -0.74663       57.99912       88.67529
H          0.82289       57.94942       89.55711
H          0.73826       58.71122       87.92947
N          0.35374       53.91676       86.22849
C          1.00072       52.72963       85.67492
C          0.54871       52.41632       84.24659
O          1.24811       51.69172       83.55331
C          0.80389       51.53901       86.63979
C          1.84117       50.42297       86.45491
C          1.68416       49.36181       87.55896
C          2.79142       48.29394       87.54870
N          4.10551       48.85093       87.88629
H         -0.26234       53.81270       87.04806
H          2.08838       52.96714       85.66536
H         -0.23943       51.15658       86.58377
H          0.97011       51.92633       87.67036
H          2.84110       50.89493       86.53935
H          1.75007       49.94794       85.45569
H          0.70037       48.86191       87.42378
H          1.68757       49.84616       88.56082
H          2.83185       47.78945       86.55902
H          2.53124       47.52990       88.31471
H          4.06500       49.33890       88.81119
H          4.79877       48.07147       87.95326
H          4.43669       49.51293       87.15041
N         -0.61604       52.92207       83.74296
C         -1.04600       52.76037       82.35352
C         -0.10419       53.54744       81.46329
O          0.43624       52.98217       80.52277
C         -2.53888       53.18120       82.18670
C         -3.43879       52.12371       82.87221
C         -4.92956       52.37760       82.90743
O         -5.51220       53.47208       82.37856
O         -5.64222       51.53729       83.43151
H         -1.21644       53.47490       84.36669
H         -0.99607       51.68935       82.05025
H         -2.81154       53.20418       81.10808
H         -2.69678       54.19656       82.60846
H         -3.10903       51.98517       83.91863
H         -3.28247       51.15383       82.35020
N          0.20332       54.84149       81.75089
C          1.17573       55.59570       80.98953
H          2.15397       55.06635       80.99546
H          0.82764       55.72454       79.94434
H          1.32253       56.59622       81.44978
H         -0.22528       55.29295       82.56888
Ca        -7.79506       53.64066       82.58291
O         -8.42603       55.07253       85.30864
H         -8.54965       54.59266       86.16675
H         -7.95665       55.90505       85.55545
O         -7.67526       51.82530       85.53390
H         -8.32526       52.01091       84.81217
H         -8.21906       51.81907       86.36050

Ca 1.0



