%chk=holoCaM.loop2.water2.frame412.chk
%nprocshared=20
%mem=10GB
%nosave
#b3lyp/svp scf=(tight,noincore,xqc) Test 
#IOP(5/87=12) Density=Current Pop=(MK,readradii) iop(6/33=2) iop(6/42=6)

holoCaM.loop2.water2.frame412 

   -2  1 
C         84.96029       99.85676       30.69534
C         86.27257      100.42718       31.13406
O         86.70949      100.14724       32.24196
H         84.25670      100.67978       30.45640
H         85.11921       99.23454       29.78831
H         84.52236       99.21740       31.49077
N         86.98387      101.21396       30.28144
C         88.31365      101.70437       30.60295
C         88.27064      102.70511       31.75321
O         87.72071      103.78456       31.58914
C         88.99290      102.24109       29.32001
C         90.45984      102.43599       29.50665
O         91.19934      102.47157       28.54393
O         90.95742      102.40962       30.74566
H         86.59484      101.39198       29.34212
H         88.90820      100.82437       30.91474
H         88.50942      103.15490       28.91553
H         88.89690      101.43126       28.56198
N         88.78804      102.37017       32.97433
C         88.68097      103.22582       34.15431
C         89.55157      104.47229       34.09067
O         89.24631      105.42026       34.80064
C         89.04561      102.44048       35.42107
H         89.18574      101.42653       33.09044
H         87.61486      103.52694       34.25726
H         88.88977      103.06359       36.32772
H         88.40213      101.53811       35.50817
H         90.10975      102.12275       35.38768
N         90.70014      104.51013       33.35439
C         91.61114      105.65655       33.32850
C         91.79947      106.22997       31.92554
O         92.52334      107.20704       31.79094
C         92.95349      105.25570       33.97291
C         93.62044      104.09667       33.29151
O         93.99583      104.18595       32.13343
O         93.80828      102.94927       33.97004
H         90.96994      103.67164       32.82516
H         91.20486      106.48806       33.94461
H         92.75146      104.96965       35.02844
H         93.65054      106.12120       33.98691
N         91.15765      105.71123       30.84170
C         91.24010      106.27935       29.50885
C         92.62223      106.22026       28.89576
O         93.11764      107.25226       28.46629
H         90.52592      104.90924       30.95644
H         90.86951      107.32782       29.52992
H         90.56395      105.70102       28.84121
N         93.26451      105.02721       28.74693
C         94.48264      104.85232       27.95510
C         94.22749      103.93378       26.74944
O         95.17548      103.59513       26.05492
C         95.66109      104.34129       28.82006
C         95.53528      102.94819       29.38664
N         96.59997      102.37669       29.99239
O         94.49669      102.31932       29.28632
H         92.82894      104.19196       29.15808
H         94.82226      105.82856       27.54475
H         95.85452      105.05235       29.65232
H         96.56138      104.34125       28.16722
H         97.49391      102.88211       30.07572
H         96.54007      101.41453       30.35225
N         92.96648      103.51924       26.42398
C         92.63745      102.69011       25.27432
C         92.56167      101.20110       25.58207
O         92.10092      100.47118       24.71510
H         92.16620      103.90641       26.93710
H         93.31078      102.89876       24.41499
H         91.61813      102.99099       24.94635
N         93.00524      100.66464       26.75754
C         92.93210       99.23641       27.08593
C         92.33617       99.00561       28.47307
O         92.11909       99.95988       29.20351
C         94.34858       98.60464       27.02787
C         94.90927       98.55980       25.60067
O         95.23902       99.26197       27.89843
H         93.45755      101.28674       27.43414
H         92.28180       98.70575       26.35594
H         94.28610       97.54410       27.35205
H         95.50824      100.12128       27.47951
H         95.01928       99.58008       25.17839
H         95.90423       98.06580       25.60848
H         94.23101       97.96923       24.94825
N         92.07382       97.73730       28.91024
C         91.63707       97.41051       30.26883
C         92.63640       96.46293       30.91756
O         92.84118       95.36005       30.42957
C         90.18869       96.82370       30.31911
C         89.94996       95.65985       29.32055
C         89.17096       97.95666       30.12737
C         88.57271       95.00691       29.46455
H         92.22504       96.95512       28.25499
H         91.62157       98.32841       30.89754
H         90.02443       96.44074       31.35236
H         90.69325       94.85895       29.49490
H         90.06187       96.02129       28.27606
H         89.26715       98.42630       29.12658
H         88.13035       97.60726       30.27733
H         89.34627       98.71403       30.91391
H         88.49433       94.15414       28.75826
H         88.43306       94.62639       30.49870
H         87.75614       95.71425       29.21716
N         93.30173       96.84392       32.04492
C         94.21050       95.96987       32.78337
C         93.37332       94.98035       33.60905
O         92.15952       95.03294       33.50959
C         95.14927       96.85834       33.64060
C         96.43994       96.22991       34.10634
O         97.28606       96.96203       34.85454
O         96.78202       95.11583       33.74472
H         93.13787       97.79171       32.40912
H         94.85167       95.43735       32.04644
H         94.58011       97.27588       34.49694
H         95.48736       97.70893       33.01165
N         93.92332       94.03614       34.42165
C         93.13193       93.02310       35.11912
C         92.12139       93.61286       36.11256
O         90.95924       93.25222       35.98928
C         94.06620       91.96036       35.74533
C         93.35273       90.72122       36.23515
C         92.57427       89.94750       35.35230
C         93.49783       90.29678       37.56691
C         91.95144       88.77853       35.79616
C         92.87852       89.12097       38.00422
C         92.10578       88.36336       37.12009
H         94.94129       93.97907       34.50314
H         92.55344       92.48562       34.33690
H         94.68179       92.40056       36.55071
H         94.76878       91.61842       34.95444
H         92.45319       90.23768       34.31698
H         94.10187       90.86492       38.26308
H         91.35641       88.18990       35.10952
H         93.00358       88.79259       39.02762
H         91.63094       87.45163       37.45847
N         92.43434       94.52901       37.09064
C         91.44863       95.13739       37.98913
C         90.23268       95.67178       37.25816
O         89.10551       95.43486       37.66810
C         92.20789       96.33125       38.59828
C         93.61796       95.80838       38.65550
C         93.74725       95.10774       37.30471
H         91.16330       94.40597       38.77742
H         92.23838       97.18579       37.88285
H         91.78666       96.70915       39.55471
H         94.39854       96.57369       38.85547
H         93.64951       95.03922       39.45935
H         93.95137       95.82947       36.48365
H         94.56441       94.37126       37.38425
N         90.43270       96.41850       36.14383
C         89.39811       97.07393       35.35673
C         88.43058       96.03397       34.81663
O         87.24319       96.12866       35.09543
C         90.09556       97.91812       34.25577
C         90.97643       99.01264       34.92098
C         91.92631       99.68295       33.97731
O         93.13018       99.63129       34.17441
O         91.46181      100.40310       32.95563
H         91.41073       96.51425       35.83460
H         88.82834       97.78194       36.00094
H         89.35210       98.40042       33.58336
H         90.72946       97.24414       33.64188
H         91.61007       98.59676       35.72593
H         90.31686       99.76420       35.39877
N         88.87797       94.97139       34.09603
C         88.01131       93.89832       33.66184
H         87.22743       94.28581       32.97989
H         88.60782       93.12712       33.12761
H         87.53809       93.41722       34.54545
H         89.87521       94.89344       33.88349
Ca        92.80942      101.51884       31.55031
O         95.97445      101.37258       32.97111
H         96.80748      100.91413       32.69749
H         96.27530      102.06967       33.60560
O         94.79972       99.39618       31.05309
H         94.44793       98.82879       30.32490
H         95.76588       99.18637       31.07944

Ca 1.0



