%chk=holoCaM.loop1.water2.frame96.chk
%nprocshared=20
%mem=10GB
%nosave
#b3lyp/svp scf=(tight,noincore,xqc) Test 
#IOP(5/87=12) Density=Current Pop=(MK,readradii) iop(6/33=2) iop(6/42=6)

holoCaM.loop1.water2.frame96 

   0  1 
C         70.05740       35.15576       21.72764
C         69.01133       36.01538       21.08824
O         67.83950       35.84685       21.38209
H         70.79230       35.78746       22.26607
H         69.59498       34.44013       22.44087
H         70.57948       34.57424       20.93739
N         69.36680       36.96134       20.17828
C         68.38747       37.74177       19.42942
C         67.56264       36.78564       18.57809
O         68.12033       36.09855       17.73404
C         69.11977       38.82055       18.60092
C         68.28157       39.50802       17.55647
O         68.65832       39.47148       16.39633
O         67.13153       40.15268       17.84145
H         70.37271       37.09728       19.99029
H         67.72318       38.27310       20.14440
H         69.97606       38.34985       18.06922
H         69.53631       39.57666       19.30352
N         66.21766       36.68215       18.78193
C         65.35764       35.70874       18.11419
C         64.54665       36.32929       16.98832
O         63.90753       35.57525       16.26721
C         64.34330       35.09301       19.12213
C         64.93732       34.48930       20.40190
C         65.85119       33.29562       20.12113
C         66.41507       32.71402       21.42382
N         67.29058       31.57772       21.14408
H         65.79589       37.30831       19.47022
H         65.98862       34.91442       17.66170
H         63.73005       34.31845       18.61132
H         63.64680       35.89700       19.44933
H         64.09496       34.14984       21.04608
H         65.47947       35.27625       20.96215
H         66.69749       33.61817       19.47996
H         65.26953       32.51081       19.58935
H         65.58250       32.38514       22.08516
H         66.99409       33.49480       21.96199
H         67.68808       31.22122       22.04270
H         66.74584       30.81237       20.68429
H         68.07637       31.87546       20.52091
N         64.46121       37.67976       16.81018
C         63.59875       38.29580       15.80362
C         64.33556       39.28265       14.89461
O         63.67740       39.93544       14.09646
C         62.32181       38.86336       16.46999
C         62.49559       39.87815       17.56229
O         63.59818       40.23063       17.93993
O         61.39904       40.38080       18.16006
H         64.96007       38.30145       17.46015
H         63.19793       37.52543       15.10881
H         61.77004       38.00829       16.92057
H         61.67041       39.29833       15.68193
N         65.69912       39.34393       14.85104
C         66.42866       40.09390       13.83437
C         66.39657       41.59345       14.02392
O         65.94606       42.30402       13.13704
H         66.25166       38.73282       15.46830
H         66.04538       39.81221       12.82873
H         67.49840       39.79557       13.87000
N         66.92466       42.14099       15.15070
C         67.01595       43.57278       15.41493
C         68.28450       43.96157       16.19940
O         68.40676       45.12889       16.54457
C         65.71589       44.05771       16.08327
C         65.32714       43.25781       17.28886
O         64.24288       42.70374       17.31786
O         66.15313       43.14624       18.33909
H         67.22870       41.49684       15.88311
H         67.08653       44.13614       14.45744
H         64.89143       43.97448       15.33996
H         65.80884       45.13053       16.35485
N         69.30269       43.08031       16.45103
C         70.55867       43.45712       17.09363
C         70.48140       43.72393       18.58757
O         71.52426       44.02054       19.15664
H         69.25568       42.12070       16.08813
H         70.98550       44.34138       16.57106
H         71.27879       42.61943       16.96830
N         69.32157       43.63961       19.29815
C         69.23023       43.87317       20.74080
C         68.60805       42.68167       21.45540
O         68.18128       41.74059       20.79972
C         68.43035       45.16849       21.02174
C         69.20172       46.41918       20.57688
O         67.15850       45.12215       20.42440
H         68.45830       43.40590       18.79865
H         70.24515       43.99818       21.17958
H         68.28489       45.28042       22.11696
H         67.25975       45.32378       19.45679
H         68.60948       47.32773       20.81503
H         70.16819       46.47763       21.12200
H         69.40630       46.39890       19.48583
N         68.58626       42.63346       22.82043
C         68.06684       41.50857       23.59624
C         67.06972       42.01430       24.63746
O         67.46155       42.74888       25.53541
C         69.26394       40.74552       24.24891
C         70.12830       40.09980       23.12821
C         68.79112       39.67948       25.25524
C         71.38351       39.38087       23.62357
H         69.02237       43.40976       23.34381
H         67.53938       40.78699       22.93236
H         69.88104       41.47935       24.81503
H         70.47118       40.88947       22.42767
H         69.51122       39.37301       22.55348
H         68.19624       40.13969       26.06885
H         68.18617       38.90085       24.75164
H         69.65516       39.20277       25.75863
H         71.94681       38.99093       22.74918
H         72.03471       40.08419       24.18328
H         71.13138       38.51187       24.26372
N         65.75857       41.64059       24.58050
C         64.75966       42.00190       25.58994
C         64.88372       41.11487       26.82620
O         65.71069       40.21560       26.85067
C         63.32356       41.92407       25.00003
C         63.08161       43.02826       23.96229
O         63.06813       40.64722       24.47147
H         65.45986       41.06780       23.78199
H         64.92183       43.05425       25.91152
H         62.57009       42.11267       25.79198
H         63.19977       40.66329       23.48754
H         63.79383       42.91923       23.12520
H         62.04435       42.95839       23.56998
H         63.21552       44.02768       24.42777
N         64.07970       41.33632       27.90805
C         64.13632       40.55615       29.14583
C         63.79477       39.10059       28.87195
O         64.51054       38.22234       29.32859
C         63.17394       41.14031       30.20978
C         63.43010       40.51368       31.58700
O         63.38067       42.52598       30.31644
H         63.40642       42.11469       27.85539
H         65.16687       40.63596       29.56025
H         62.12439       40.93904       29.88505
H         62.51402       42.92658       30.59080
H         62.73383       40.94652       32.33524
H         63.29030       39.41364       31.56716
H         64.47065       40.73643       31.91314
N         62.71998       38.78677       28.09402
C         62.38503       37.42810       27.67008
C         63.56668       36.78072       26.94932
O         63.95141       35.67849       27.31435
C         61.08205       37.42344       26.80542
C         61.18206       38.19405       25.47665
C         59.84876       38.34161       24.73519
C         60.05072       39.16123       23.44486
N         58.79051       39.35191       22.72882
H         62.13815       39.56680       27.75680
H         62.15153       36.81810       28.57123
H         60.27639       37.88016       27.41994
H         60.78495       36.37514       26.58072
H         61.87927       37.65541       24.81121
H         61.54865       39.21455       25.68131
H         59.12395       38.87233       25.39006
H         59.44281       37.33830       24.48345
H         60.77598       38.64110       22.77926
H         60.47105       40.16046       23.69891
H         58.38592       38.42685       22.45794
H         58.11274       39.87563       23.32903
H         58.97190       39.90963       21.86238
N         64.20052       37.42218       25.92531
C         65.28599       36.82369       25.14563
C         66.58789       36.69196       25.93668
O         67.52613       36.09858       25.42226
C         65.54064       37.63926       23.85765
C         64.25767       37.79049       23.01603
C         64.50083       38.54803       21.75977
O         65.22277       39.67902       21.77645
O         64.06258       38.12806       20.70474
H         63.86920       38.36262       25.67652
H         64.95803       35.80955       24.82622
H         66.32293       37.13363       23.25016
H         65.91126       38.65117       24.13293
H         63.51503       38.37038       23.57068
H         63.81906       36.79720       22.77603
N         66.73094       37.22882       27.17952
C         67.94122       37.11141       27.96186
H         68.79158       37.58145       27.42813
H         67.80742       37.63017       28.93699
H         68.16369       36.04249       28.16060
H         65.96155       37.75402       27.59340
Ca        66.07243       40.26607       19.80480
O         64.77630       43.86898       21.03432
H         64.60055       44.04075       20.07752
H         64.25277       44.56747       21.50027
O         62.64881       41.76126       20.81360
H         62.23988       42.65823       20.90681
H         61.88593       41.16296       20.61736

Ca 1.0



