%chk=holoCaM.loop1.water2.frame224.chk
%nprocshared=20
%mem=10GB
%nosave
#b3lyp/svp scf=(tight,noincore,xqc) Test 
#IOP(5/87=12) Density=Current Pop=(MK,readradii) iop(6/33=2) iop(6/42=6)

holoCaM.loop1.water2.frame224 

   0  1 
C         34.96223       67.32718       38.52278
C         33.82300       67.65688       39.43401
O         33.82880       68.73185       40.01440
H         35.90876       67.35089       39.10115
H         34.84226       66.31771       38.07775
H         35.01040       68.07714       37.70617
N         32.78544       66.79007       39.59046
C         31.66861       67.07837       40.47361
C         32.12037       66.87470       41.91571
O         32.40024       65.74623       42.29598
C         30.47627       66.18433       40.08609
C         29.21507       66.51554       40.80964
O         28.19707       65.91361       40.52886
O         29.18091       67.48002       41.74097
H         32.77559       65.92052       39.03480
H         31.34808       68.13067       40.28976
H         30.72388       65.11343       40.25005
H         30.27148       66.33571       39.00275
N         32.28333       67.94006       42.75011
C         32.91708       67.83559       44.06861
C         31.93498       67.52781       45.19487
O         32.39506       67.28237       46.30155
C         33.72020       69.13139       44.36646
C         34.84817       69.38699       43.34195
C         35.99207       68.36708       43.47213
C         37.03484       68.52353       42.36125
N         38.11610       67.55266       42.53697
H         32.12672       68.87397       42.34809
H         33.61555       66.97725       44.06145
H         34.16825       69.10144       45.38309
H         33.01242       69.98844       44.33881
H         35.27028       70.40274       43.50512
H         34.42695       69.37083       42.31964
H         35.61016       67.33187       43.40008
H         36.47330       68.50058       44.46601
H         37.45521       69.55270       42.36613
H         36.54310       68.34749       41.37824
H         38.79321       67.64059       41.74580
H         38.61713       67.73641       43.43664
H         37.73230       66.57900       42.54426
N         30.58556       67.52547       45.00146
C         29.60460       67.20041       46.04581
C         28.62821       66.08614       45.63521
O         27.83615       65.67658       46.47307
C         28.84507       68.47032       46.49473
C         28.10922       69.20131       45.39295
O         27.46426       70.19852       45.66974
O         28.20380       68.78208       44.10954
H         30.24977       67.79465       44.07383
H         30.13556       66.82435       46.94990
H         29.57919       69.17554       46.94557
H         28.12827       68.18803       47.29831
N         28.65407       65.51250       44.39738
C         27.85039       64.36161       44.00849
C         26.36991       64.62107       43.80328
O         25.56352       63.92074       44.39877
H         29.34515       65.83016       43.70841
H         28.00898       63.53939       44.74067
H         28.22484       64.00384       43.02627
N         25.94198       65.55505       42.90611
C         24.54620       65.70508       42.48337
C         24.43177       65.68078       40.95014
O         23.44272       66.16728       40.41843
C         23.92517       66.97309       43.12038
C         24.52536       68.27436       42.69782
O         24.09959       69.42414       43.25038
O         25.37914       68.30739       41.84130
H         26.64597       66.16927       42.47473
H         23.92132       64.87246       42.87417
H         24.03364       66.88782       44.22168
H         22.84136       67.01826       42.87992
N         25.39835       65.09919       40.17589
C         25.37070       65.07355       38.71921
C         25.66091       66.41266       38.05104
O         25.61658       66.44132       36.82872
H         26.16836       64.59361       40.63325
H         24.38705       64.67903       38.37950
H         26.15192       64.36974       38.35701
N         25.95004       67.55506       38.75206
C         26.14411       68.85890       38.11577
C         27.34327       69.67759       38.72076
O         26.96650       70.29905       39.93067
C         24.82441       69.68255       38.14491
C         23.73644       69.10649       37.22870
O         24.33605       69.82047       39.45579
H         25.96689       67.51489       39.77034
H         26.39735       68.68830       37.04558
H         25.03362       70.69922       37.74821
H         23.95362       68.94644       39.73160
H         23.44092       68.08424       37.54171
H         22.83946       69.76067       37.26793
H         24.10036       69.07630       36.17953
N         27.66964       70.76499       37.77685
C         28.91204       71.51868       38.02508
C         28.52079       72.99227       38.14590
O         27.79842       73.48945       37.29311
C         29.95872       71.29278       36.88272
C         30.28200       69.78152       36.70435
C         31.24768       72.07904       37.18511
C         31.26912       69.49067       35.56809
H         27.52666       70.54759       36.76297
H         29.38924       71.18286       38.97166
H         29.52988       71.67862       35.93121
H         29.35016       69.23063       36.46139
H         30.69089       69.36181       37.64975
H         31.96316       72.02596       36.34243
H         31.03116       73.15429       37.33939
H         31.74165       71.66634       38.08762
H         32.27186       69.91461       35.77907
H         31.39612       68.39327       35.45863
H         30.88825       69.90205       34.60916
N         28.98239       73.74995       39.18127
C         28.60281       75.13943       39.44452
C         29.76002       76.08838       39.17158
O         30.80784       75.66007       38.71724
C         28.17351       75.28237       40.93533
C         26.90876       74.49871       41.27405
O         29.23294       74.93693       41.79491
H         29.65880       73.32176       39.82019
H         27.76293       75.45742       38.78838
H         27.91091       76.33440       41.16035
H         29.18200       73.97081       42.00119
H         26.65564       74.67456       42.34184
H         26.06245       74.85070       40.65006
H         27.07568       73.41637       41.10874
N         29.62880       77.41703       39.45557
C         30.71727       78.38780       39.34857
C         31.87695       78.09409       40.30534
O         32.91646       78.71725       40.13871
C         30.20066       79.80848       39.69610
C         29.17929       80.31600       38.66300
O         29.65301       79.77238       40.99699
H         28.71077       77.75093       39.77795
H         31.10371       78.36588       38.30376
H         31.05471       80.52211       39.68528
H         29.04197       80.54322       41.11674
H         28.84846       81.34040       38.93911
H         29.65135       80.36843       37.65979
H         28.28435       79.66389       38.61108
N         31.77398       77.20562       41.34054
C         32.85335       76.94893       42.29635
C         33.46537       75.56544       42.11278
O         34.37982       75.22775       42.85121
C         32.36231       77.14702       43.75358
C         31.32820       76.10018       44.21601
C         31.00720       76.24137       45.70837
C         30.03066       75.14592       46.16497
N         29.75321       75.25482       47.59691
H         30.89709       76.69122       41.46705
H         33.68095       77.67224       42.13284
H         31.94341       78.17029       43.87358
H         33.25079       77.06615       44.41757
H         31.74354       75.08282       44.05912
H         30.39196       76.20493       43.63380
H         30.56547       77.24259       45.90343
H         31.94871       76.14423       46.29266
H         30.47074       74.14415       45.95755
H         29.07817       75.23234       45.59623
H         29.32385       76.18390       47.81121
H         29.08560       74.49967       47.87546
H         30.63773       75.14000       48.14368
N         33.03926       74.72801       41.12895
C         33.58865       73.40477       40.87586
C         34.34293       73.44527       39.55789
O         35.50960       73.07957       39.54205
C         32.45074       72.36338       40.87923
C         31.74005       72.31956       42.24480
C         30.57417       71.37235       42.26822
O         29.65105       71.50778       41.48511
O         30.50494       70.40974       43.20323
H         32.29361       75.04025       40.50044
H         34.31165       73.10535       41.66687
H         32.85705       71.35634       40.64219
H         31.72119       72.63942       40.09786
H         31.35260       73.32671       42.48804
H         32.46688       72.02857       43.03234
N         33.76607       73.94923       38.42884
C         34.46336       74.10865       37.16842
H         35.49920       73.71303       37.20253
H         33.90716       73.58355       36.36601
H         34.51234       75.18997       36.91448
H         32.79760       74.28441       38.46262
Ca        27.55632       69.58877       42.06268
O         25.28466       71.67828       41.77780
H         25.17517       71.85780       40.81087
H         24.94190       72.49585       42.21550
O         27.77067       72.63840       43.89265
H         26.88275       73.02202       44.10051
H         27.58489       71.68465       43.71473

Ca 1.0



