%chk=holoCaM.loop2.water2.frame443.chk
%nprocshared=20
%mem=10GB
%nosave
#b3lyp/svp scf=(tight,noincore,xqc) Test 
#IOP(5/87=12) Density=Current Pop=(MK,readradii) iop(6/33=2) iop(6/42=6)

holoCaM.loop2.water2.frame443 

   -2  1 
C         12.96932      104.96862       67.61911
C         12.73395      106.42482       67.35285
O         13.33401      106.96078       66.43214
H         14.03646      104.79924       67.86684
H         12.34185      104.60380       68.45970
H         12.70458      104.38654       66.71066
N         11.83697      107.12517       68.09964
C         11.48978      108.50726       67.80860
C         12.66942      109.44695       68.04330
O         13.03997      109.68042       69.18564
C         10.27225      108.91357       68.66229
C          9.72279      110.26553       68.34584
O          8.64674      110.69458       69.01935
O         10.21745      110.96851       67.48242
H         11.33012      106.62989       68.85036
H         11.17730      108.54675       66.74109
H         10.54256      108.88082       69.74069
H          9.45263      108.18318       68.48660
N         13.31792      110.00467       66.98232
C         14.43205      110.93444       67.10862
C         13.96873      112.31314       67.55746
O         14.42646      112.78180       68.58985
C         15.16609      111.06147       65.76482
H         13.05099      109.69341       66.04004
H         15.17009      110.51852       67.83096
H         15.54301      110.06574       65.44832
H         14.49545      111.44459       64.96657
H         16.03315      111.74898       65.86386
N         13.10816      113.04634       66.78791
C         12.75049      114.43484       67.08144
C         12.08032      114.57901       68.44715
O         12.62836      115.27779       69.28817
C         11.91482      115.07107       65.93847
C         10.56399      114.44658       65.74351
O         10.44066      113.15512       65.38098
O          9.56000      115.10561       65.95922
H         12.75650      112.61825       65.92086
H         13.69802      115.02048       67.10367
H         12.47476      115.01185       64.97992
H         11.77841      116.14911       66.17958
N         10.91986      113.92656       68.74854
C         10.28714      113.95227       70.06052
C          8.84906      114.42825       70.00365
O          8.51023      115.36500       70.71272
H         10.49163      113.32966       68.03455
H         10.85711      114.58426       70.77694
H         10.28819      112.91630       70.45935
N          7.94075      113.81146       69.19364
C          6.52358      114.16140       69.12807
C          5.61211      112.95441       69.37311
O          4.43517      113.03682       69.04791
C          6.21142      114.87637       67.79500
C          6.70401      114.18444       66.52361
N          6.39206      114.94689       65.31593
O          6.32905      112.85224       66.38504
H          8.26912      113.06334       68.56968
H          6.25077      114.90564       69.90842
H          6.72819      115.85999       67.81440
H          5.12081      115.07652       67.72589
H          5.44800      115.38556       65.38767
H          6.38065      114.30003       64.49350
N          6.04530      111.84113       70.03545
C          5.16848      110.71946       70.35485
C          4.78121      109.85379       69.16852
O          4.00705      108.92835       69.37618
H          7.00212      111.81660       70.41139
H          4.25608      111.10911       70.85824
H          5.68512      110.04728       71.07267
N          5.25909      110.06985       67.90950
C          4.91845      109.22681       66.76103
C          6.14561      108.97629       65.89367
O          7.18997      109.56247       66.15572
C          3.81815      109.91446       65.91160
C          2.52222      110.11875       66.70396
O          4.28041      111.15726       65.45101
H          5.88283      110.87037       67.75046
H          4.53842      108.23955       67.10679
H          3.58719      109.25414       65.04426
H          3.69868      111.42158       64.69141
H          1.75156      110.57511       66.04733
H          2.13731      109.14482       67.07278
H          2.68572      110.80035       67.56498
N          6.08777      108.13923       64.81456
C          7.17442      108.04100       63.84291
C          6.69509      108.38859       62.43772
O          5.50353      108.38689       62.15665
C          7.95420      106.68994       63.91800
C          7.03746      105.44718       63.79509
C          8.79480      106.66090       65.20957
C          7.81335      104.12284       63.75932
H          5.22691      107.59448       64.64627
H          7.91801      108.83363       64.06181
H          8.67524      106.66681       63.07443
H          6.45586      105.51918       62.85170
H          6.32540      105.41249       64.64742
H          8.14617      106.65726       66.10958
H          9.46966      105.78227       65.23842
H          9.45547      107.55331       65.24816
H          8.52668      104.11511       62.90897
H          8.36947      103.94514       64.70262
H          7.10590      103.27628       63.63586
N          7.62444      108.77099       61.52195
C          7.39019      109.17890       60.14298
C          8.14595      108.18188       59.26097
O          8.68971      107.23855       59.81211
C          7.91508      110.63673       60.01145
C          7.52524      111.42039       58.78342
O          6.71745      110.99424       57.97565
O          8.01275      112.66607       58.62630
H          8.60316      108.78485       61.82423
H          6.30384      109.15400       59.90743
H          9.02151      110.62766       60.11612
H          7.50927      111.23424       60.85265
N          8.22556      108.27266       57.90783
C          8.92892      107.27704       57.10548
C         10.42249      107.18078       57.45900
O         10.84902      106.06836       57.73231
C          8.65373      107.50485       55.60239
C          9.22796      106.42445       54.71675
C          8.86454      105.07559       54.89464
C         10.11472      106.76198       53.68059
C          9.38596      104.08721       54.05575
C         10.62703      105.77043       52.83898
C         10.26455      104.43433       53.02722
H          7.74826      109.03444       57.41870
H          8.46988      106.29083       57.33886
H          9.01433      108.49699       55.27841
H          7.55171      107.50357       55.45320
H          8.17684      104.78303       55.67721
H         10.40218      107.79302       53.51647
H          9.10374      103.05220       54.20034
H         11.30276      106.03928       52.03789
H         10.66138      103.66838       52.37404
N         11.28336      108.25244       57.50818
C         12.70083      108.14850       57.86418
C         12.94978      107.40059       59.16425
O         13.74851      106.47499       59.18864
C         13.14677      109.61170       58.02312
C         12.26673      110.31371       57.02141
C         10.92071      109.63252       57.25524
H         13.24195      107.66516       57.02006
H         12.84254      110.01015       59.01752
H         14.23999      109.77474       57.90947
H         12.24519      111.42133       57.10200
H         12.63071      110.03279       56.00673
H         10.40039      110.03157       58.15273
H         10.31008      109.78996       56.35164
N         12.26923      107.76050       60.28540
C         12.41509      107.12966       61.59595
C         12.11493      105.64034       61.50413
O         12.89798      104.84415       62.00239
C         11.47811      107.83489       62.60432
C         11.90082      109.30555       62.83421
C         10.90793      110.07859       63.65393
O          9.79041      110.29983       63.22468
O         11.26611      110.60621       64.83162
H         11.57636      108.51769       60.18370
H         13.45489      107.25194       61.97312
H         11.49211      107.31027       63.58509
H         10.45523      107.78185       62.19919
H         12.00816      109.85515       61.87752
H         12.89056      109.30952       63.34040
N         11.03016      105.19070       60.82034
C         10.73195      103.78726       60.64185
H          9.83781      103.67415       59.98983
H         11.58656      103.27586       60.14971
H         10.52339      103.31341       61.62214
H         10.41820      105.86898       60.36609
Ca         8.39910      112.27334       65.69680
O          8.48638      113.92592       62.82830
H          8.10361      113.77262       61.92819
H          8.29628      114.87869       63.01973
O          6.63553      111.51438       63.19333
H          5.83926      112.08087       63.03951
H          6.51027      111.14991       64.10229

Ca 1.0



