%chk=holoCaM-CaMKII.loop1.water2.frame132.chk
%nprocshared=20
%mem=10GB
%nosave
#b3lyp/svp scf=(tight,noincore,xqc) Test 
#IOP(5/87=12) Density=Current Pop=(MK,readradii) iop(6/33=2) iop(6/42=6)

holoCaM-CaMKII.loop1.water2.frame132 

   0  1 
C         24.86174       43.46664       69.16282
C         23.40296       43.65914       68.87099
O         22.71466       44.26344       69.68119
H         25.35036       44.45728       69.27428
H         24.98002       42.89170       70.10468
H         25.36970       42.91413       68.34435
N         22.85993       43.17937       67.71712
C         21.45732       43.36546       67.36831
C         20.56775       42.65765       68.38188
O         20.62896       41.44143       68.49956
C         21.20975       42.83852       65.94650
C         19.83167       43.10162       65.42996
O         19.53654       42.68247       64.32754
O         18.92664       43.79923       66.14310
H         23.47908       42.69189       67.05047
H         21.25256       44.46044       67.36722
H         21.40091       41.74381       65.92494
H         21.91965       43.33142       65.24651
N         19.76555       43.39069       69.19911
C         19.01480       42.82321       70.31231
C         17.78235       42.04727       69.85150
O         17.60932       40.91424       70.27635
C         18.62591       43.95182       71.29511
C         18.33941       43.42455       72.70993
C         18.03141       44.58185       73.67017
C         17.97653       44.09868       75.12605
N         17.64022       45.19909       76.02921
H         19.80250       44.41533       69.10300
H         19.71022       42.16153       70.87848
H         17.77814       44.54842       70.89699
H         19.50435       44.62683       71.40785
H         19.25557       42.90239       73.06822
H         17.49691       42.70023       72.70670
H         17.06355       45.04422       73.37859
H         18.83044       45.35326       73.59836
H         18.97244       43.68698       75.40889
H         17.22036       43.29074       75.23328
H         16.68148       45.55602       75.81219
H         17.65699       44.85135       77.01519
H         18.33544       45.97497       75.93325
N         16.88191       42.60569       68.98380
C         15.61735       41.97315       68.58243
C         15.62854       41.44271       67.14292
O         14.59666       40.95526       66.70084
C         14.42887       42.94298       68.82890
C         14.52676       44.22164       68.04502
O         15.18035       44.21818       66.87295
O         14.35872       45.28513       68.61984
H         17.10727       43.52926       68.58830
H         15.42087       41.08133       69.21572
H         14.39925       43.19796       69.91254
H         13.46778       42.44589       68.58340
N         16.76621       41.40571       66.38982
C         16.85165       40.69687       65.11756
C         16.27656       41.39179       63.89238
O         16.33719       40.77568       62.83724
H         17.64807       41.73100       66.80585
H         16.37729       39.69672       65.23444
H         17.92381       40.51448       64.89290
N         15.72823       42.64346       63.90729
C         15.19237       43.26798       62.68934
C         16.25011       43.53057       61.60920
O         15.86395       43.78910       60.47754
C         14.38849       44.55246       62.99645
C         15.15650       45.59784       63.75162
O         16.18820       46.05456       63.29839
O         14.68042       46.06790       64.91948
H         15.66430       43.14362       64.79906
H         14.46649       42.54863       62.24841
H         13.49480       44.28209       63.59788
H         14.03156       44.99544       62.04131
N         17.58536       43.47490       61.87204
C         18.62849       43.58565       60.86033
C         19.56421       44.75948       61.07156
O         20.57891       44.80381       60.39178
H         17.88553       43.31560       62.83624
H         18.21596       43.65373       59.83073
H         19.23077       42.65275       60.91481
N         19.28344       45.76485       61.95144
C         20.17137       46.90194       62.18660
C         20.48376       47.04354       63.66947
O         19.91685       46.34289       64.49460
C         19.56002       48.21159       61.62044
C         19.50230       48.20855       60.08502
O         18.29367       48.46970       62.17333
H         18.39693       45.74225       62.46312
H         21.14630       46.73931       61.67648
H         20.21951       49.06567       61.88506
H         17.63472       47.87699       61.72516
H         19.09130       49.17566       59.72379
H         20.52588       48.09031       59.66842
H         18.86321       47.38392       59.70676
N         21.44526       47.92939       64.05494
C         21.89620       48.13071       65.42770
C         21.75287       49.60859       65.75741
O         22.21660       50.43756       64.98797
C         23.37185       47.65682       65.55059
C         23.46529       46.14135       65.22119
C         23.91635       47.93288       66.96942
C         24.89691       45.63641       65.05293
H         21.93333       48.46324       63.32022
H         21.29857       47.52742       66.14661
H         23.97980       48.22592       64.81281
H         22.95989       45.92720       64.25685
H         22.94991       45.55579       66.01136
H         23.31798       47.38593       67.73084
H         24.97693       47.62937       67.06356
H         23.87770       49.01635       67.20492
H         25.49445       45.75815       65.97654
H         24.87408       44.55494       64.80042
H         25.38777       46.18089       64.21787
N         21.14453       50.00365       66.91103
C         20.93070       51.39981       67.27789
C         21.77683       51.75341       68.48728
O         22.48120       50.90009       68.99631
C         19.42283       51.64842       67.54952
C         18.55709       51.29712       66.32758
O         18.99237       50.95390       68.69593
H         20.84289       49.28659       67.57769
H         21.24812       52.07101       66.45134
H         19.26078       52.72819       67.74892
H         18.71939       50.04091       68.42825
H         18.86154       51.90371       65.45012
H         18.66628       50.22228       66.07037
H         17.48761       51.49681       66.55170
N         21.77569       53.02019       68.98439
C         22.54667       53.42358       70.16046
C         22.03564       52.70148       71.39824
O         22.82426       52.13878       72.14426
C         22.43750       54.95609       70.35933
C         23.31308       55.43904       71.52352
O         22.86004       55.59734       69.18304
H         21.20310       53.72822       68.50122
H         23.62295       53.19150       69.99531
H         21.37094       55.21383       70.56512
H         22.45774       56.50504       69.18843
H         24.37846       55.18795       71.33039
H         23.22292       56.54038       71.63001
H         23.00012       54.97347       72.48110
N         20.70047       52.68668       71.65604
C         20.07029       52.07261       72.82465
C         20.49065       50.61798       72.96224
O         20.93656       50.22874       74.03258
C         18.52949       52.22610       72.71694
C         18.12814       53.71892       72.78125
C         16.63161       53.95536       72.54042
C         16.28336       55.45854       72.48571
N         16.52777       56.14378       73.75689
H         20.09481       53.12161       70.94496
H         20.39273       52.60112       73.74978
H         18.02954       51.69325       73.55574
H         18.18242       51.77197       71.76152
H         18.66613       54.30035       72.00740
H         18.42489       54.11117       73.77593
H         16.02577       53.44914       73.32192
H         16.36320       53.52007       71.55237
H         15.20718       55.56155       72.22503
H         16.87239       55.95206       71.67942
H         17.54470       56.14238       73.99445
H         16.22305       57.14020       73.66838
H         15.97879       55.68915       74.52164
N         20.43866       49.77751       71.89540
C         20.89761       48.38684       71.93233
C         22.36449       48.32079       72.32390
O         22.69101       47.64160       73.28718
C         20.66768       47.71139       70.55920
C         19.16336       47.65654       70.25477
C         18.82887       47.09996       68.90877
O         17.94188       46.10858       68.83214
O         19.23195       47.61795       67.88446
H         20.09382       50.16947       71.00793
H         20.30753       47.81777       72.68677
H         21.06758       46.67303       70.57220
H         21.20223       48.28192       69.76875
H         18.71943       48.66689       70.28771
H         18.65522       47.05214       71.03748
N         23.29592       49.03409       71.63564
C         24.70789       49.05556       71.95572
H         25.28941       48.74077       71.06419
H         25.00557       50.09144       72.22554
H         24.96160       48.38404       72.80156
H         22.98681       49.61835       70.85572
Ca        16.83397       45.69309       66.94227
O         15.94945       48.54575       68.17322
H         16.29422       48.74847       69.07865
H         15.42167       47.71705       68.29119
O         16.78000       48.62485       65.17622
H         16.58403       49.52309       64.80958
H         17.10611       48.11118       64.39817

Ca 1.0



