%chk=holoCaM.loop1.water2.frame456.chk
%nprocshared=20
%mem=10GB
%nosave
#b3lyp/svp scf=(tight,noincore,xqc) Test 
#IOP(5/87=12) Density=Current Pop=(MK,readradii) iop(6/33=2) iop(6/42=6)

holoCaM.loop1.water2.frame456 

   0  1 
C         16.36641       83.79547       35.69384
C         16.25236       85.11854       34.99920
O         15.15831       85.47730       34.58696
H         17.40768       83.60315       36.02884
H         15.70116       83.78341       36.58182
H         16.06543       82.98706       34.99572
N         17.35179       85.90400       34.83080
C         17.30302       87.19807       34.16633
C         16.83054       87.02088       32.72119
O         17.49514       86.36058       31.93620
C         18.69294       87.86094       34.24742
C         18.76670       89.25242       33.70363
O         19.94992       89.87968       33.70968
O         17.78456       89.82721       33.27222
H         18.25426       85.57061       35.20477
H         16.59229       87.84310       34.73362
H         19.42900       87.23160       33.70466
H         19.00090       87.92055       35.31547
N         15.64940       87.57398       32.33473
C         14.98586       87.38061       31.04727
C         15.28469       88.50908       30.06206
O         14.89422       88.39152       28.90928
C         13.46122       87.29161       31.34524
C         12.52495       87.16674       30.13211
C         11.04347       87.07190       30.54829
C         10.66196       85.78785       31.30883
N         10.85534       84.58965       30.49018
H         15.12790       88.07513       33.05262
H         15.33264       86.42669       30.59343
H         13.15066       88.21186       31.89334
H         13.31942       86.42550       32.02276
H         12.81641       86.30636       29.49815
H         12.60816       88.08907       29.52163
H         10.41481       87.13021       29.63372
H         10.79129       87.95217       31.18119
H          9.58671       85.86090       31.58384
H         11.23257       85.69600       32.25677
H         10.51189       83.75631       31.01894
H         10.31097       84.67194       29.60060
H         11.86718       84.44451       30.27669
N         15.93927       89.64054       30.44172
C         16.12864       90.80112       29.57389
C         17.59791       91.16786       29.38082
O         17.86981       92.09514       28.63032
C         15.31190       91.99225       30.12937
C         15.72941       92.42750       31.51796
O         16.16438       93.55317       31.69103
O         15.60669       91.58637       32.57155
H         16.26498       89.70722       31.40674
H         15.72908       90.58701       28.55770
H         14.23604       91.71203       30.15470
H         15.41267       92.84584       29.42169
N         18.60082       90.47846       29.99281
C         20.01185       90.75212       29.78666
C         20.43783       92.12088       30.26232
O         21.07819       92.83915       29.50812
H         18.37730       89.68961       30.61403
H         20.27583       90.61077       28.71592
H         20.59407       90.01162       30.37758
N         20.16163       92.51940       31.53280
C         20.71533       93.72207       32.15008
C         21.50577       93.34635       33.40673
O         21.83630       94.23032       34.18535
C         19.61063       94.77493       32.41890
C         18.55767       94.38234       33.40536
O         18.59762       93.18902       34.00103
O         17.65721       95.15902       33.67873
H         19.56938       91.90647       32.11132
H         21.42171       94.23510       31.46170
H         19.11254       95.01674       31.45555
H         20.08977       95.70276       32.80027
N         21.89599       92.05372       33.63937
C         22.65893       91.64496       34.80510
C         21.87208       91.65475       36.10252
O         22.50739       91.47732       37.13253
H         21.72279       91.33159       32.92827
H         23.54340       92.31327       34.89366
H         23.03884       90.60948       34.66295
N         20.51279       91.82748       36.15833
C         19.78719       91.93535       37.42284
C         18.30953       91.40095       37.35709
O         17.48142       92.33503       36.70865
C         19.81748       93.40446       37.95149
C         21.20428       93.90496       38.36322
O         19.25186       94.29134       37.01802
H         19.98267       91.88778       35.28797
H         20.29696       91.26908       38.15416
H         19.20391       93.44871       38.87627
H         19.84743       94.31857       36.22378
H         21.89316       93.95572       37.49649
H         21.11120       94.93001       38.78022
H         21.63043       93.24284       39.14584
N         17.82261       91.27048       38.74718
C         16.51683       90.60957       38.94511
C         15.53605       91.61466       39.55025
O         15.94421       92.52192       40.26375
C         16.68475       89.30100       39.80603
C         17.37345       88.21307       38.93307
C         15.36037       88.78159       40.38657
C         17.60571       86.87304       39.63685
H         18.54859       90.90703       39.40711
H         16.08853       90.31804       37.96448
H         17.31414       89.53340       40.69431
H         18.36000       88.59127       38.59096
H         16.75040       88.01423       38.03215
H         14.67645       88.48636       39.57902
H         15.52604       87.91193       41.05373
H         14.88965       89.55039       41.03155
H         18.22747       87.01060       40.54521
H         16.64573       86.38769       39.91003
H         18.12750       86.18076       38.94255
N         14.20349       91.49059       39.28096
C         13.13527       92.34803       39.78506
C         12.17660       91.51667       40.62504
O         12.42295       90.33563       40.82753
C         12.35778       92.98557       38.59357
C         13.22951       93.93987       37.76739
O         11.75673       91.98981       37.79654
H         13.91030       90.71030       38.68242
H         13.53866       93.16514       40.42324
H         11.53592       93.62323       38.97559
H         12.30942       91.83411       36.99023
H         14.08961       93.39862       37.32588
H         12.62168       94.38090       36.94755
H         13.60166       94.76560       38.40982
N         11.03049       92.05202       41.11692
C         10.00825       91.26324       41.79890
C          9.50963       90.13700       40.89323
O          9.49117       88.99199       41.31691
C          8.81504       92.15625       42.23239
C          9.23078       93.19302       43.28370
O          8.26316       92.81191       41.11792
H         10.85284       93.05482       40.95471
H         10.43576       90.80843       42.72196
H          8.05003       91.48883       42.69485
H          7.33867       93.07691       41.36295
H          9.64428       92.68407       44.17966
H          9.99180       93.89568       42.88640
H          8.34416       93.78481       43.59487
N          9.09702       90.41066       39.62355
C          8.53172       89.42063       38.70621
C          9.48691       88.27758       38.42713
O          9.10688       87.12864       38.61061
C          8.14334       90.09442       37.36967
C          6.98731       91.09341       37.56152
C          6.57267       91.81723       36.27066
C          6.13633       90.90010       35.11317
N          5.03541       90.01073       35.48720
H          9.18819       91.38250       39.29741
H          7.60581       88.99155       39.14972
H          7.80890       89.30233       36.66627
H          9.02701       90.60501       36.92498
H          7.27263       91.87774       38.29251
H          6.11207       90.55563       37.98334
H          7.41872       92.44622       35.91728
H          5.72936       92.49633       36.52412
H          6.99664       90.29622       34.75266
H          5.81175       91.54858       34.26941
H          4.23092       90.56321       35.86205
H          4.72288       89.48448       34.63978
H          5.35356       89.31477       36.19893
N         10.73743       88.52110       37.95946
C         11.69356       87.47286       37.60304
C         11.93368       86.57918       38.80987
O         11.72244       85.37834       38.71437
C         12.99723       88.11400       37.07027
C         12.73464       88.94325       35.79206
C         13.89816       89.80753       35.41278
O         14.35079       89.76745       34.28872
O         14.38024       90.71647       36.27272
H         11.01490       89.50838       37.87260
H         11.27710       86.84736       36.78167
H         13.76669       87.33924       36.85415
H         13.38659       88.77574       37.85633
H         11.89845       89.64852       35.94110
H         12.45275       88.26502       34.95680
N         12.29714       87.11558       40.00410
C         12.41819       86.33109       41.21330
H         11.44424       85.84732       41.44492
H         13.20337       85.55669       41.09651
H         12.68563       86.99271       42.06580
H         12.44602       88.12600       40.06678
Ca        16.42367       91.95698       34.67827
O         13.95660       93.77360       34.30357
H         13.31048       93.29211       33.72877
H         13.55862       94.67127       34.42977
O         16.14464       94.67193       36.40402
H         15.44911       95.31598       36.12396
H         16.82740       95.22258       36.86044

Ca 1.0



