%chk=holoCaM.loop2.water1.frame230.chk
%nprocshared=20
%mem=10GB
%nosave
#b3lyp/svp scf=(tight,noincore,xqc) Test 
#IOP(5/87=12) Density=Current Pop=(MK,readradii) iop(6/33=2) iop(6/42=6)

holoCaM.loop2.water1.frame230 

   -2  1 
C         53.47142       91.20441       43.29845
C         52.88092       92.48029       42.78383
O         52.07920       92.42998       41.86135
H         54.17806       91.39458       44.13354
H         52.65623       90.54759       43.66819
H         54.01545       90.69219       42.47887
N         53.21256       93.67266       43.35087
C         52.62211       94.92610       42.91378
C         53.07016       95.23951       41.48566
O         54.27102       95.25327       41.25152
C         53.01076       96.06764       43.88337
C         52.09749       97.24378       43.72265
O         52.29786       98.27053       44.34352
O         51.00117       97.11951       42.95935
H         53.86863       93.67953       44.14749
H         51.52308       94.79162       42.97687
H         54.07161       96.35779       43.72122
H         52.89277       95.73752       44.93839
N         52.17177       95.47645       40.48050
C         52.55545       95.59660       39.07421
C         52.38938       96.99243       38.48091
O         52.86626       97.17806       37.36900
C         51.77915       94.56115       38.25690
H         51.17594       95.51880       40.70953
H         53.63797       95.36572       38.97039
H         52.09812       94.57705       37.19334
H         51.96474       93.54424       38.66438
H         50.68836       94.77020       38.30919
N         51.80764       98.03242       39.15182
C         51.89011       99.42163       38.67799
C         52.74294      100.25684       39.63664
O         52.99467      101.41585       39.33904
C         50.48219      100.01634       38.40585
C         49.62311      100.17961       39.62682
O         48.41761      100.33502       39.51962
O         50.18805      100.16084       40.83966
H         51.35921       97.85222       40.06142
H         52.41978       99.45433       37.70078
H         49.97375       99.31826       37.70548
H         50.55333      101.00429       37.90097
N         53.26120       99.71594       40.78438
C         54.18109      100.40020       41.66827
C         53.60156      101.62494       42.32769
O         54.18198      102.68771       42.15574
H         53.06347       98.74087       41.04202
H         55.09432      100.66879       41.09212
H         54.49215       99.70013       42.47497
N         52.50054      101.55371       43.13951
C         52.01234      102.71437       43.89482
C         52.05807      102.50797       45.41129
O         51.94987      103.49300       46.12798
C         50.60041      103.13441       43.44732
C         49.52003      102.22374       43.97424
N         48.55574      102.70515       44.79243
O         49.51921      101.04402       43.67498
H         52.01983      100.64750       43.22743
H         52.67734      103.57688       43.67559
H         50.55674      103.18070       42.33739
H         50.40970      104.15884       43.83225
H         48.53828      103.69707       45.06902
H         47.82110      102.08388       45.15445
N         52.17821      101.26799       45.97186
C         52.28043      101.01938       47.40064
C         51.15450      100.16338       47.95849
O         51.28992       99.74049       49.09757
H         52.22137      100.44077       45.37145
H         52.32965      101.95896       47.99091
H         53.23665      100.47560       47.56066
N         50.00762       99.89263       47.26162
C         48.92184       99.05836       47.79478
C         48.62716       97.90305       46.84096
O         49.30395       97.78719       45.82798
C         47.67040       99.91674       48.09702
C         47.98957      101.02618       49.10857
O         47.16608      100.47723       46.91783
H         49.87519      100.31146       46.32987
H         49.22333       98.59862       48.76192
H         46.89905       99.25633       48.55476
H         46.23311      100.75883       47.10987
H         48.38645      100.58753       50.04941
H         48.73897      101.73452       48.69629
H         47.06753      101.59505       49.35135
N         47.65450       96.98052       47.12456
C         47.45086       95.76928       46.33217
C         46.06674       95.74541       45.67740
O         45.06633       95.64013       46.37203
C         47.69205       94.52822       47.24955
C         49.11576       94.51436       47.87433
C         47.41215       93.19354       46.54652
C         50.26954       94.38387       46.86994
H         47.07753       97.09844       47.96985
H         48.18903       95.72780       45.51635
H         46.97149       94.59215       48.09597
H         49.18250       93.66010       48.58342
H         49.26965       95.44061       48.46739
H         48.06720       93.05468       45.66821
H         47.57990       92.35464       47.25372
H         46.35658       93.13809       46.22195
H         50.29581       95.23887       46.16609
H         51.23256       94.37022       47.42166
H         50.20099       93.43822       46.29463
N         45.95922       95.80754       44.31286
C         44.71529       95.64270       43.55502
C         44.21290       94.20488       43.63352
O         44.86075       93.37509       44.24981
C         44.96060       95.98352       42.06207
C         45.32451       97.42576       41.86678
O         44.44646       98.38872       42.20571
O         46.39660       97.73170       41.37011
H         46.81585       95.97732       43.77563
H         43.93925       96.33101       43.95666
H         44.04611       95.80817       41.45962
H         45.76446       95.32597       41.66078
N         43.05497       93.83360       43.01693
C         42.53871       92.46690       43.02844
C         43.47888       91.47622       42.31905
O         43.86574       90.52599       42.98214
C         41.09629       92.42932       42.46810
C         40.54214       91.02896       42.35891
C         40.35518       90.23296       43.50190
C         40.20491       90.50781       41.09678
C         39.83638       88.93930       43.38084
C         39.69031       89.21452       40.98071
C         39.50439       88.43095       42.12171
H         42.50186       94.56233       42.53917
H         42.44872       92.14155       44.09051
H         41.04614       92.91638       41.48377
H         40.43493       93.03485       43.12469
H         40.60531       90.61316       44.48402
H         40.34392       91.10004       40.20046
H         39.69028       88.33037       44.26337
H         39.43521       88.82110       40.00510
H         39.10283       87.43027       42.02927
N         43.89064       91.58378       41.00861
C         44.77740       90.61819       40.35185
C         46.04194       90.34855       41.13519
O         46.43930       89.20248       41.29470
C         45.16541       91.31661       39.03776
C         43.92716       92.11080       38.73132
C         43.57042       92.67092       40.10413
H         44.21436       89.68022       40.14836
H         45.96676       92.07129       39.21491
H         45.51315       90.62883       38.23728
H         44.03831       92.87639       37.93453
H         43.13570       91.38675       38.42952
H         44.19204       93.55147       40.37634
H         42.51003       92.94500       40.05318
N         46.71415       91.40402       41.65824
C         47.96925       91.32754       42.38924
C         47.80940       90.41617       43.59347
O         48.57256       89.47044       43.72615
C         48.39930       92.75111       42.80786
C         48.60157       93.68606       41.59034
C         48.87001       95.09690       42.00332
O         49.05821       95.40809       43.29599
O         48.89330       95.97981       41.16115
H         46.27062       92.32516       41.54024
H         48.76548       90.91711       41.72819
H         49.34391       92.70484       43.39409
H         47.59974       93.18424       43.44719
H         47.68735       93.73590       40.97163
H         49.42746       93.31941       40.94429
N         46.79238       90.61347       44.47728
C         46.51765       89.74806       45.60581
H         45.50687       89.30385       45.48298
H         47.25510       88.92485       45.69898
H         46.52656       90.34101       46.54189
H         46.14872       91.39535       44.32281
Ca        49.57413       98.68986       42.35772
O         46.84956       99.84672       43.57123
H         47.02190       99.62025       44.51824
H         45.88994      100.08540       43.54581

Ca 1.0



