%chk=holoCaM.loop2.water1.frame341.chk
%nprocshared=20
%mem=10GB
%nosave
#b3lyp/svp scf=(tight,noincore,xqc) Test 
#IOP(5/87=12) Density=Current Pop=(MK,readradii) iop(6/33=2) iop(6/42=6)

holoCaM.loop2.water1.frame341 

   -2  1 
C         -4.48361       32.80991       17.17686
C         -5.68396       33.07074       16.30623
O         -6.30682       32.13519       15.82808
H         -3.58610       33.30229       16.74679
H         -4.66660       33.23524       18.18875
H         -4.28550       31.72328       17.28667
N         -6.07749       34.35350       16.09523
C         -7.28638       34.75301       15.37807
C         -7.28221       34.39524       13.89664
O         -6.35239       34.76717       13.19467
C         -7.46772       36.27275       15.53029
C         -8.70457       36.76239       14.84186
O         -8.61426       37.60740       13.96690
O         -9.91067       36.26392       15.17463
H         -5.50831       35.09252       16.53879
H         -8.15471       34.27910       15.86822
H         -6.57978       36.79683       15.11221
H         -7.54662       36.52048       16.61044
N         -8.36295       33.75757       13.34631
C         -8.51703       33.49259       11.91834
C         -9.78162       34.12140       11.30745
O         -9.94214       33.97312       10.10343
C         -8.56469       31.97490       11.70085
H         -9.12479       33.45832       13.96838
H         -7.64283       33.89132       11.35950
H         -8.63850       31.73447       10.61795
H         -7.64263       31.50085       12.09783
H         -9.44414       31.53575       12.22123
N        -10.74021       34.77802       12.04069
C        -12.01386       35.23866       11.45707
C        -12.32542       36.72513       11.65385
O        -13.33341       37.17811       11.12811
C        -13.17189       34.36926       11.99966
C        -13.41729       34.44860       13.48793
O        -12.74894       35.16884       14.21130
O        -14.40132       33.70616       14.02861
H        -10.60695       34.87593       13.05384
H        -11.99774       35.08338       10.35697
H        -12.95670       33.30990       11.74320
H        -14.11289       34.65758       11.48276
N        -11.52986       37.54316       12.38977
C        -11.77856       38.96241       12.59165
C        -13.09496       39.25640       13.28109
O        -13.81718       40.12079       12.80389
H        -10.69072       37.15316       12.82546
H        -11.73321       39.50276       11.61913
H        -10.96603       39.36753       13.23280
N        -13.45403       38.61068       14.42929
C        -14.64587       38.95991       15.20502
C        -14.27996       39.45038       16.60755
O        -15.18365       39.72994       17.38347
C        -15.67922       37.80720       15.22763
C        -15.30030       36.54048       15.95015
N        -16.22234       35.55726       16.07548
O        -14.18975       36.39494       16.43472
H        -12.83998       37.86144       14.78170
H        -15.18358       39.80446       14.72108
H        -15.95294       37.54564       14.18188
H        -16.59624       38.19490       15.72385
H        -17.16766       35.66819       15.68064
H        -16.00768       34.68934       16.58081
N        -12.97937       39.64426       16.98363
C        -12.58017       40.20376       18.26769
C        -12.73513       39.27290       19.45823
O        -12.36117       39.68415       20.54721
H        -12.22304       39.47960       16.30572
H        -13.13044       41.15386       18.44185
H        -11.49778       40.45069       18.21022
N        -13.25217       38.01759       19.34585
C        -13.37240       37.07691       20.45642
C        -12.68669       35.77785       20.09885
O        -13.04653       35.19374       19.09370
C        -14.86066       36.78783       20.76461
C        -15.54471       37.99521       21.39955
O        -15.56011       36.42753       19.59774
H        -13.58378       37.69723       18.42972
H        -12.91055       37.47752       21.38625
H        -14.92279       35.97131       21.52490
H        -15.52600       35.43891       19.52105
H        -15.52642       38.86807       20.71501
H        -16.59947       37.74035       21.63614
H        -15.03153       38.26333       22.34869
N        -11.73510       35.23039       20.90626
C        -11.13043       33.91826       20.65783
C        -12.23556       32.85992       20.59194
O        -13.03675       32.76630       21.50994
C        -10.05308       33.59686       21.74993
C         -8.86034       34.58918       21.60549
C         -9.54943       32.14296       21.63948
C         -7.76954       34.43645       22.66867
H        -11.47257       35.74648       21.75959
H        -10.60009       33.93106       19.67939
H        -10.51929       33.70998       22.75398
H         -9.22764       35.63318       21.67581
H         -8.39198       34.46385       20.60360
H         -8.83496       31.89957       22.45089
H        -10.38548       31.42562       21.75840
H         -9.05385       31.97305       20.66340
H         -7.27068       33.44842       22.60858
H         -6.98669       35.20668       22.50031
H         -8.19616       34.57940       23.68317
N        -12.29441       32.00629       19.52617
C        -13.27473       30.93408       19.36819
C        -12.62192       29.61862       19.78031
O        -11.47507       29.62764       20.17732
C        -13.78360       30.86555       17.89661
C        -14.67040       32.02158       17.48290
O        -14.20229       33.27991       17.35574
O        -15.84996       31.81055       17.24845
H        -11.52790       32.03478       18.84267
H        -14.13956       31.07913       20.05117
H        -14.40635       29.95269       17.79418
H        -12.93246       30.76020       17.18810
N        -13.31963       28.44482       19.75571
C        -12.74260       27.16497       20.17355
C        -11.52033       26.75029       19.35000
O        -10.50296       26.47284       19.97931
C        -13.82045       26.05939       20.17537
C        -13.25211       24.71274       20.57247
C        -12.59942       24.53387       21.80748
C        -13.36133       23.62115       19.69394
C        -12.05821       23.28976       22.14624
C        -12.82642       22.37757       20.04124
C        -12.17238       22.21254       21.26434
H        -14.30396       28.46450       19.45786
H        -12.41472       27.27411       21.23094
H        -14.29060       25.99282       19.17389
H        -14.61863       26.34139       20.89584
H        -12.49738       25.35466       22.50534
H        -13.85962       23.73138       18.73901
H        -11.54817       23.16103       23.09237
H        -12.91653       21.54232       19.35921
H        -11.75392       21.25000       21.52834
N        -11.48548       26.67542       17.97981
C        -10.31879       26.23647       17.21420
C         -9.14036       27.21058       17.25594
O         -8.15227       26.95457       16.58653
C        -10.87288       26.05992       15.79590
C        -11.92980       27.13699       15.73213
C        -12.59296       27.00300       17.09931
H         -9.94815       25.24693       17.56349
H        -10.11777       26.06754       14.98073
H        -11.41547       25.08781       15.75436
H        -11.40387       28.11686       15.68777
H        -12.63136       27.07342       14.87377
H        -13.08033       27.96760       17.32821
H        -13.32408       26.16790       17.11979
N         -9.15602       28.31542       18.04918
C         -8.06740       29.27166       18.16792
C         -7.44143       29.08511       19.53940
O         -6.24033       28.86104       19.61024
C         -8.62761       30.68495       17.89264
C         -9.26017       30.69978       16.48536
C         -9.99870       31.94050       16.12600
O         -9.95304       33.05398       16.86846
O        -10.74435       31.91409       15.15920
H         -9.98123       28.51716       18.61263
H         -7.27325       29.08016       17.41275
H         -7.82868       31.45233       17.97449
H         -9.41490       30.91596       18.64102
H        -10.03876       29.91150       16.45953
H         -8.50912       30.47590       15.69974
N         -8.20571       29.04490       20.66573
C         -7.67056       28.68358       21.95934
H         -6.91131       29.42156       22.28503
H         -8.49085       28.64455       22.70915
H         -7.21444       27.67027       21.90324
H         -9.21444       29.20698       20.60557
Ca       -12.02273       33.74634       17.18664
O        -10.67529       37.26251       17.73337
H         -9.79681       36.89102       17.99781
H        -10.45335       38.01149       17.12504

Ca 1.0



