%chk=holoCaM-CaMKII.loop2.water2.frame389.chk
%nprocshared=20
%mem=10GB
%nosave
#b3lyp/svp scf=(tight,noincore,xqc) Test 
#IOP(5/87=12) Density=Current Pop=(MK,readradii) iop(6/33=2) iop(6/42=6)

holoCaM-CaMKII.loop2.water2.frame389 

   -2  1 
C         28.41279       87.76049       66.27220
C         27.59652       86.52909       65.98105
O         28.15796       85.45036       65.87766
H         29.15851       87.93301       65.47102
H         27.77049       88.66399       66.35979
H         28.94030       87.63004       67.24207
N         26.24411       86.61688       65.88627
C         25.35924       85.46144       65.77552
C         25.48336       84.73308       64.43695
O         25.36681       85.38417       63.40774
C         23.90055       85.93897       65.94963
C         22.95069       84.80460       66.18140
O         23.41536       83.55543       66.34334
O         21.75584       85.02221       66.29257
H         25.81792       87.55095       65.99462
H         25.59188       84.77893       66.62267
H         23.59304       86.52555       65.05604
H         23.82252       86.59484       66.84300
N         25.63587       83.37143       64.38066
C         25.66972       82.61486       63.12667
C         24.52706       81.59459       62.97324
O         24.43239       81.03163       61.89071
C         27.01783       81.89192       63.00993
H         25.71843       82.85099       65.26269
H         25.58564       83.31330       62.26602
H         27.13586       81.15573       63.83444
H         27.09281       81.35125       62.04151
H         27.85288       82.62227       63.06394
N         23.65480       81.26365       63.98000
C         22.66610       80.17747       63.84969
C         21.34412       80.41389       64.60811
O         20.49818       79.53139       64.57136
C         23.33831       78.84017       64.24792
C         23.78112       78.78352       65.67801
O         23.39920       79.73273       66.54181
O         24.54438       77.90572       66.04698
H         23.82658       81.65491       64.91003
H         22.38826       80.06088       62.77906
H         24.24336       78.73260       63.60989
H         22.67717       77.97190       64.04271
N         21.07214       81.57273       65.27980
C         19.80507       81.86374       65.95127
C         19.51511       81.09063       67.23720
O         18.46033       81.32309       67.81024
H         21.75055       82.33576       65.23866
H         18.97513       81.71051       65.22909
H         19.80464       82.93879       66.23592
N         20.37600       80.17383       67.76010
C         20.12028       79.38720       68.97288
C         20.15709       80.17948       70.29564
O         20.03263       79.55233       71.33904
C         21.08691       78.17512       69.02273
C         22.55300       78.49078       69.16736
N         23.44758       77.47915       69.18847
O         22.94519       79.64279       69.25505
H         21.22258       79.96964       67.23031
H         19.11094       78.92896       68.88017
H         20.95893       77.59482       68.08211
H         20.79676       77.51266       69.86639
H         23.14094       76.49939       69.10461
H         24.44975       77.67516       69.28260
N         20.27865       81.53937       70.34751
C         20.25793       82.31359       71.58609
C         21.54049       82.27379       72.40868
O         21.56932       82.93219       73.43863
H         20.28806       82.07534       69.47558
H         19.39029       81.99475       72.20592
H         20.09959       83.38154       71.32400
N         22.62962       81.54072       72.04097
C         23.86674       81.45550       72.81859
C         25.08923       81.73158       71.95507
O         25.19836       81.16906       70.87633
C         24.00373       80.04425       73.43463
C         22.94634       79.80805       74.51423
O         23.88724       79.04549       72.45220
H         22.57086       80.96952       71.19398
H         23.86896       82.17003       73.67233
H         24.99007       79.96407       73.95279
H         24.78148       78.93433       72.03753
H         23.09316       78.80640       74.96975
H         23.04509       80.57131       75.31720
H         21.92300       79.86288       74.08853
N         26.10391       82.51746       72.42069
C         27.38236       82.66185       71.71977
C         28.07473       81.29560       71.67429
O         28.23021       80.67525       72.71749
C         28.31011       83.72123       72.40679
C         27.61066       85.10967       72.47985
C         29.63945       83.84283       71.62604
C         28.43980       86.18976       73.18260
H         25.98517       82.96878       73.33930
H         27.19233       83.03616       70.69149
H         28.53910       83.38070       73.44114
H         26.66601       85.02491       73.05239
H         27.35753       85.46308       71.45655
H         30.16188       82.86887       71.56661
H         29.44914       84.21322       70.59638
H         30.34953       84.53073       72.12468
H         29.36174       86.43263       72.61706
H         27.84430       87.12445       73.25084
H         28.70897       85.86451       74.20978
N         28.56210       80.79868       70.50077
C         29.26057       79.51924       70.36629
C         30.74718       79.75588       70.16151
O         31.17389       80.89755       70.17951
C         28.69026       78.73028       69.16563
C         27.24845       78.37508       69.33407
O         26.40360       79.24909       69.41068
O         26.87842       77.08053       69.36651
H         28.49121       81.38551       69.66216
H         29.15654       78.90829       71.29018
H         29.24491       77.77803       69.04382
H         28.81150       79.31927       68.22975
N         31.61022       78.71455       69.99043
C         33.04705       78.88619       69.80063
C         33.39601       79.69610       68.54398
O         34.13701       80.65659       68.69648
C         33.76954       77.52357       69.78592
C         35.26845       77.70603       69.72508
C         35.95126       78.33535       70.78280
C         35.99540       77.26148       68.60853
C         37.33475       78.51860       70.72048
C         37.37984       77.44980       68.54950
C         38.04869       78.07762       69.60408
H         31.23508       77.75393       70.02261
H         33.43199       79.43640       70.68835
H         33.41318       76.92138       68.92881
H         33.52257       76.95417       70.70819
H         35.41475       78.68394       71.65640
H         35.49099       76.77939       67.78049
H         37.85239       79.00427       71.53783
H         37.93427       77.11102       67.68439
H         39.11993       78.22295       69.55655
N         32.92307       79.41384       67.28118
C         33.29007       80.17713       66.08493
C         32.69810       81.58667       66.04696
O         32.86287       82.25642       65.03608
C         32.77145       79.29733       64.93921
C         31.52867       78.69099       65.54242
C         32.01326       78.33435       66.94432
H         34.39268       80.26351       65.96979
H         32.64000       79.80826       63.96099
H         33.49000       78.45783       64.79231
H         30.76801       79.50069       65.62038
H         31.08596       77.84106       64.98062
H         31.12349       78.27383       67.59581
H         32.57382       77.37681       66.93944
N         32.04458       82.12077       67.11410
C         31.47101       83.45462       67.16078
C         32.27119       84.30973       68.11981
O         32.72096       85.37797       67.73163
C         30.01836       83.35884       67.63986
C         29.21086       82.40447       66.76261
C         27.80755       82.25871       67.22697
O         27.06960       81.30585       66.66361
O         27.33290       82.95375       68.11078
H         31.92850       81.56369       67.96075
H         31.47864       83.93434       66.15583
H         29.56094       84.36939       67.65322
H         29.99649       82.95702       68.67484
H         29.66537       81.39276       66.82179
H         29.20587       82.73098       65.70079
N         32.51139       83.88477       69.39129
C         33.28318       84.64650       70.34214
H         34.29815       84.84043       69.93672
H         32.76778       85.60321       70.56289
H         33.38433       84.06725       71.28597
H         32.15566       82.97592       69.70009
Ca        24.99508       81.00769       67.31761
O         22.52887       82.95532       68.92976
H         22.23683       82.32532       68.22364
H         21.90576       83.72190       68.85296
O         24.92327       84.39778       69.28518
H         25.82772       84.79590       69.32720
H         24.33804       85.14381       69.00046

Ca 1.0



