%chk=holoCaM-CaMKII.loop2.water0.frame314.chk
%nprocshared=20
%mem=10GB
%nosave
#b3lyp/svp scf=(tight,noincore,xqc) Test 
#IOP(5/87=12) Density=Current Pop=(MK,readradii) iop(6/33=2) iop(6/42=6)

holoCaM-CaMKII.loop2.water0.frame314 

   -2  1 
C         73.21278       34.31445       35.32934
C         74.48782       33.52457       35.36060
O         75.36882       33.83517       36.14957
H         72.35451       33.65108       35.56382
H         73.24168       35.14415       36.06708
H         73.07049       34.74698       34.31566
N         74.65784       32.48587       34.49705
C         75.87825       31.68780       34.42435
C         77.07959       32.58299       34.15586
O         77.07865       33.33191       33.18926
C         75.71676       30.58520       33.36833
C         76.97933       29.81589       33.08130
O         77.42960       29.89960       31.95270
O         77.62806       29.01801       33.96852
H         73.88269       32.26988       33.84968
H         76.02486       31.18027       35.38058
H         75.39845       31.07530       32.41986
H         74.91052       29.88131       33.66997
N         78.13959       32.54582       35.01353
C         79.30005       33.41894       34.95301
C         80.58410       32.66771       34.62609
O         81.60124       33.32682       34.46056
C         79.44016       34.12417       36.30759
H         78.11629       31.86545       35.77436
H         79.15553       34.18252       34.15896
H         80.29278       34.83428       36.30162
H         78.51063       34.68343       36.54641
H         79.61089       33.37341       37.11220
N         80.62192       31.30906       34.48858
C         81.80793       30.57294       34.05918
C         81.56056       29.88134       32.71508
O         82.43518       29.16158       32.25380
C         82.28057       29.61898       35.17903
C         81.26292       28.60726       35.61648
O         80.85406       27.76783       34.83651
O         80.83021       28.59548       36.89149
H         79.77018       30.75472       34.65534
H         82.66370       31.26207       33.88603
H         82.55506       30.23845       36.06112
H         83.19894       29.08559       34.84943
N         80.43110       30.13236       31.98455
C         80.19734       29.63062       30.63823
C         79.84209       28.15843       30.53187
O         79.60220       27.72458       29.41382
H         79.74089       30.80824       32.33723
H         81.07971       29.86215       30.00370
H         79.33550       30.18655       30.20866
N         79.77870       27.32085       31.60796
C         79.46678       25.89552       31.46858
C         77.99160       25.61207       31.15998
O         77.65259       24.45290       30.96623
C         79.93643       25.10684       32.71403
C         79.21236       25.40757       34.00287
N         79.58108       24.77038       35.13793
O         78.29665       26.21413       34.03390
H         80.02115       27.68737       32.53503
H         80.08268       25.49997       30.63037
H         81.01838       25.31476       32.86523
H         79.82547       24.01999       32.51016
H         80.35291       24.08734       35.12838
H         79.09763       24.95818       36.02792
N         77.05865       26.60533       31.10661
C         75.64772       26.38428       30.83524
C         74.97429       25.58818       31.92936
O         74.35696       24.57768       31.62948
H         77.34706       27.57697       31.25363
H         75.52282       25.89163       29.84560
H         75.13769       27.37145       30.78724
N         75.03133       26.01886       33.22323
C         74.35589       25.37027       34.35214
C         74.59208       26.18983       35.61853
O         75.73039       26.38344       36.00686
C         74.76534       23.88421       34.54825
C         76.27270       23.65976       34.68101
O         74.10688       23.37830       35.68239
H         75.56603       26.88313       33.40560
H         73.26330       25.36706       34.14064
H         74.42366       23.31674       33.65517
H         74.06012       22.39199       35.57990
H         76.47694       22.57340       34.78258
H         76.78803       24.01822       33.76745
H         76.68504       24.16908       35.57312
N         73.54157       26.73082       36.29141
C         73.67586       27.64113       37.43088
C         74.39325       26.98160       38.61082
O         74.02376       25.89223       39.02476
C         72.27626       28.20756       37.83748
C         71.68745       29.04514       36.66192
C         72.37380       29.08534       39.10317
C         70.24312       29.49387       36.88238
H         72.59678       26.50982       35.94569
H         74.27305       28.52185       37.11055
H         71.60488       27.34958       38.06248
H         71.67703       28.45322       35.72592
H         72.32686       29.93767       36.47842
H         72.75111       28.49511       39.95983
H         73.04740       29.95075       38.92809
H         71.38221       29.46141       39.41812
H         69.59071       28.60737       37.03029
H         70.14686       30.17599       37.74906
H         69.89271       30.04486       35.98408
N         75.37285       27.68051       39.25816
C         76.07270       27.27110       40.46798
C         75.58218       28.13418       41.63895
O         74.75050       28.99443       41.40557
C         77.59335       27.42691       40.24922
C         78.15062       26.47987       39.20774
O         78.19453       26.74688       37.87508
O         78.71619       25.47141       39.60019
H         75.57814       28.62632       38.93456
H         75.83268       26.21520       40.72224
H         78.08644       27.18032       41.21535
H         77.88157       28.47301       40.00692
N         75.97623       27.93306       42.93572
C         75.35505       28.67222       44.04354
C         75.62767       30.17752       43.98423
O         74.65229       30.91427       43.98909
C         75.70817       28.10308       45.44101
C         74.82266       28.70875       46.51589
C         73.44303       28.42625       46.53300
C         75.35551       29.55387       47.50675
C         72.61678       28.97431       47.51833
C         74.52157       30.10703       48.48721
C         73.15471       29.81559       48.49381
H         76.65217       27.18301       43.14610
H         74.25770       28.51263       43.94266
H         76.76657       28.27581       45.68750
H         75.55424       27.00321       45.45750
H         73.00630       27.77327       45.78823
H         76.41087       29.79442       47.51655
H         71.55847       28.74552       47.52543
H         74.93343       30.76254       49.24388
H         72.51162       30.24043       49.25457
N         76.88774       30.72938       43.92452
C         77.14831       32.16807       43.83109
C         76.28906       32.85901       42.79453
O         75.74663       33.92560       43.04507
C         78.61648       32.22976       43.37188
C         79.20661       31.03310       44.06701
C         78.12926       29.97989       43.83030
H         77.02885       32.63519       44.83350
H         78.69555       32.01280       42.28041
H         79.12155       33.20002       43.56542
H         80.22269       30.73563       43.73047
H         79.24225       31.26850       45.15544
H         78.19768       29.53512       42.81300
H         78.26789       29.20037       44.59465
N         76.13521       32.26103       41.58972
C         75.40370       32.81053       40.45960
C         73.94118       32.99795       40.82187
O         73.44193       34.10760       40.70440
C         75.58971       31.86678       39.25603
C         77.09227       31.74533       38.89129
C         77.35278       30.68301       37.88849
O         78.50415       30.39314       37.60397
O         76.33457       30.02553       37.31546
H         76.57212       31.33393       41.48740
H         75.83877       33.79402       40.17305
H         75.01968       32.23002       38.37356
H         75.19588       30.86702       39.53459
H         77.70442       31.44936       39.76206
H         77.48029       32.71763       38.52236
N         73.20889       31.96010       41.31359
C         71.83056       32.06828       41.74388
H         71.20795       31.34643       41.17619
H         71.76836       31.81608       42.82447
H         71.41937       33.08799       41.59782
H         73.65527       31.04626       41.42420
Ca        77.71953       28.15432       36.10384

Ca 1.0



