%chk=holoCaM.loop4.water3.frame368.chk
%nprocshared=20
%mem=10GB
%nosave
#b3lyp/svp scf=(tight,noincore,xqc) Test 
#IOP(5/87=12) Density=Current Pop=(MK,readradii) iop(6/33=2) iop(6/42=6)

holoCaM.loop4.water3.frame368 

   -3  1 
C         21.31991      102.71279       62.12603
C         21.88365      102.68864       60.73662
O         21.70937      103.66860       60.02901
H         20.21643      102.82206       62.08350
H         21.57374      101.78985       62.68643
H         21.74593      103.58249       62.67217
N         22.57740      101.60571       60.27468
C         23.22440      101.57561       58.96390
C         23.77881      100.18316       58.65666
O         24.51340       99.63123       59.46387
C         24.34895      102.63264       58.91519
C         25.05375      102.64122       57.59570
O         26.38403      102.44158       57.55180
O         24.42989      102.83338       56.56414
H         22.66057      100.78172       60.88972
H         22.47106      101.82933       58.18469
H         25.08591      102.43810       59.72363
H         23.93161      103.64842       59.06764
N         23.48184       99.58448       57.46465
C         23.90193       98.23640       57.06918
C         24.93767       98.26532       55.93593
O         25.54509       97.23401       55.68306
C         22.61791       97.45110       56.60474
C         21.59096       97.35012       57.76297
C         22.91894       96.05845       56.00842
C         20.23776       96.76299       57.34138
H         22.91127      100.11770       56.79493
H         24.38845       97.72560       57.92904
H         22.15004       98.04336       55.78570
H         21.38120       98.36723       58.15269
H         22.01420       96.74486       58.59263
H         21.99701       95.57115       55.63694
H         23.54965       96.13544       55.10128
H         23.40966       95.40309       56.75611
H         19.79800       97.35701       56.51127
H         20.32734       95.70378       57.02827
H         19.53813       96.78977       58.20228
N         25.12674       99.36529       55.15448
C         25.84639       99.31279       53.87484
C         26.74393      100.53060       53.59207
O         27.44908      100.50439       52.59302
C         24.82652       99.05930       52.73114
C         23.72874      100.08745       52.63695
O         23.64629      101.06237       53.55804
O         22.91343      100.03211       51.73080
H         24.57656      100.19487       55.38091
H         26.53221       98.43707       53.87058
H         24.34270       98.06992       52.88634
H         25.37482       99.01998       51.76496
N         26.81217      101.60157       54.43121
C         27.76083      102.70252       54.29725
C         27.59042      103.57023       53.06464
O         28.54480      103.72076       52.31561
H         26.21824      101.61241       55.26221
H         28.79367      102.29201       54.33065
H         27.64239      103.37237       55.17630
N         26.41604      104.21368       52.82016
C         26.20614      105.16104       51.71678
C         25.62551      106.49858       52.19668
O         25.33619      107.33413       51.35047
C         25.33513      104.51342       50.61549
C         24.17441      103.76702       51.17941
O         23.27171      104.37147       51.96261
O         24.10897      102.56066       51.01675
H         25.62017      104.01054       53.44533
H         27.16472      105.41699       51.21370
H         25.96768      103.77091       50.07912
H         25.00703      105.26545       49.86636
N         25.47335      106.80830       53.51992
C         24.97136      108.09846       53.98728
C         23.48573      108.34073       53.74490
O         23.01676      109.41011       54.10464
H         25.79328      106.14368       54.23635
H         25.56921      108.91059       53.51915
H         25.12418      108.16164       55.08675
N         22.68180      107.40069       53.17323
C         21.24166      107.55211       52.95538
C         20.48545      106.44779       53.69166
O         21.11461      105.61200       54.32368
C         20.92733      107.54759       51.43435
C         21.40489      106.27658       50.71360
C         21.05285      106.20416       49.25290
N         21.45218      105.13163       48.52948
O         20.41734      107.09800       48.71377
H         23.10259      106.51234       52.89863
H         20.88354      108.52358       53.35943
H         21.42184      108.42502       50.96344
H         19.83303      107.66157       51.28716
H         20.96687      105.38398       51.21029
H         22.50896      106.25024       50.76188
H         21.99033      104.37111       48.97256
H         21.22711      105.05819       47.52682
N         19.12103      106.38323       53.64343
C         18.34631      105.33010       54.29977
C         17.60209      104.47353       53.29101
O         17.21596      104.94441       52.23149
C         17.34566      105.88312       55.35794
C         18.07346      106.38406       56.60960
C         16.42969      106.98728       54.79977
H         18.61206      107.09452       53.10122
H         19.02548      104.63505       54.83740
H         16.70016      105.03927       55.69445
H         18.66219      105.55494       57.05874
H         18.75377      107.22654       56.36945
H         17.33300      106.71772       57.36927
H         17.01546      107.89048       54.52612
H         15.87640      106.63140       53.90638
H         15.68473      107.28960       55.56622
N         17.32395      103.18371       53.63002
C         16.52799      102.24920       52.84881
C         15.30914      101.85520       53.67476
O         15.18047      102.28414       54.81204
C         17.42623      101.02421       52.52996
C         16.78693       99.90650       51.74429
N         16.30552      100.11771       50.49854
O         16.72421       98.78769       52.23278
H         17.68098      102.83671       54.52902
H         16.17986      102.72132       51.90509
H         17.81366      100.60859       53.48807
H         18.28639      101.37278       51.93459
H         16.35509      101.04951       50.06373
H         15.88325       99.34251       49.96725
N         14.35241      101.04683       53.14913
C         13.21211      100.54758       53.91490
C         13.60628       99.51560       54.98644
O         12.71962       99.11230       55.72649
C         12.12273      100.01707       52.94701
C         12.64029       98.98973       51.96570
C         12.71223       99.30460       50.59641
C         13.07857       97.73268       52.39873
C         13.23767       98.38573       49.68600
C         13.60414       96.81259       51.48764
C         13.69360       97.13767       50.13110
O         14.22153       96.24785       49.26762
H         14.42762      100.80972       52.15369
H         12.74367      101.40720       54.44617
H         11.76086      100.90142       52.37589
H         11.24903       99.62003       53.50704
H         12.38158      100.27027       50.23375
H         13.01873       97.46875       53.44162
H         13.30061       98.65076       48.63831
H         13.95036       95.84908       51.83864
H         14.31746       96.44313       48.32465
N         14.89372       99.07519       55.16849
C         15.30292       98.18581       56.26291
C         16.09937       98.94386       57.31968
O         16.44395       98.34538       58.32938
C         16.19177       97.03071       55.74270
C         15.51129       96.08076       54.75606
C         14.37711       95.32649       55.39188
O         14.60755       94.53743       56.45914
O         13.24859       95.40641       54.93613
H         15.64080       99.43279       54.55962
H         14.41158       97.77242       56.78380
H         16.55456       96.42154       56.60097
H         17.08537       97.47158       55.24724
H         16.26213       95.33751       54.41139
H         15.17444       96.65283       53.87174
N         16.41592      100.25979       57.16630
C         17.16065      101.04953       58.13407
C         16.28211      102.15898       58.70235
O         16.75212      102.87109       59.57899
C         18.37354      101.68108       57.41848
C         19.29156      100.63499       56.75453
C         20.28056      101.23780       55.79102
O         21.11056      100.43015       55.10782
O         20.30144      102.43640       55.56709
H         16.12943      100.74891       56.31637
H         17.50350      100.41451       58.98033
H         18.96882      102.30883       58.11717
H         17.96149      102.34683       56.63603
H         18.68941       99.92387       56.15295
H         19.82436      100.06787       57.54568
N         15.00937      102.38126       58.24824
C         14.15150      103.43592       58.74360
H         13.20685      102.98967       59.11872
H         14.62084      104.01649       59.56354
H         13.91142      104.12975       57.90995
H         14.60484      101.80125       57.50123
Ca        22.53585      102.97508       53.49978
O         21.53573      104.42928       57.14629
H         20.88445      103.83306       57.59128
H         21.51280      105.26161       57.68037
O         20.45369      102.39714       51.78801
H         20.66868      101.49734       52.14408
H         21.18122      102.59339       51.14778
O         23.78210      105.42394       55.66333
H         24.58213      105.45885       56.24523
H         23.25193      106.21566       55.92920

Ca 1.0



