%chk=holoCaM-CaMKII.loop4.water2.frame252.chk
%nprocshared=20
%mem=10GB
%nosave
#b3lyp/svp scf=(tight,noincore,xqc) Test 
#IOP(5/87=12) Density=Current Pop=(MK,readradii) iop(6/33=2) iop(6/42=6)

holoCaM-CaMKII.loop4.water2.frame252 

   -3  1 
C         93.01610        1.18005       73.18169
C         93.09956        1.83113       74.53053
O         94.02983        2.58310       74.76765
H         92.93620        1.95610       72.39336
H         93.92949        0.57218       73.01218
H         92.13426        0.50803       73.10983
N         92.14546        1.59052       75.46738
C         92.17550        2.14059       76.81876
C         93.35604        1.56005       77.59025
O         93.45710        0.34524       77.68892
C         90.82239        1.83466       77.48613
C         90.67897        2.26842       78.91338
O         90.31605        1.44732       79.73761
O         90.83789        3.54957       79.29760
H         91.35268        0.98615       75.19829
H         92.26337        3.24305       76.75348
H         90.62226        0.74126       77.43453
H         90.03121        2.35197       76.89867
N         94.28886        2.38427       78.15834
C         95.49949        1.91377       78.84205
C         95.43907        2.18739       80.34681
O         96.18038        1.53969       81.07271
C         96.78433        2.57367       78.21604
C         96.79890        2.42370       76.67359
C         98.08835        2.02603       78.83387
C         97.96690        3.13402       75.97938
H         94.13163        3.39338       78.08459
H         95.56695        0.81038       78.72018
H         96.75583        3.65902       78.43940
H         95.88332        2.89855       76.27799
H         96.80034        1.35017       76.38804
H         98.13537        2.21312       79.92277
H         98.18871        0.93840       78.63825
H         98.97516        2.55301       78.43017
H         98.93995        2.67030       76.23624
H         97.84531        3.05547       74.87849
H         97.98756        4.20938       76.25398
N         94.60452        3.12137       80.89577
C         94.57454        3.41923       82.32951
C         93.23843        3.05592       82.97479
O         93.08376        3.28620       84.16601
C         95.01471        4.87937       82.58564
C         94.13531        5.96208       82.02094
O         93.10940        5.70512       81.41216
O         94.49213        7.24763       82.20446
H         93.98005        3.66282       80.28454
H         95.32669        2.80127       82.86717
H         96.03440        5.00849       82.15889
H         95.09059        5.04291       83.68267
N         92.27443        2.38119       82.28485
C         91.08360        1.82358       82.90763
C         90.05020        2.84819       83.31168
O         89.63901        2.85900       84.46243
H         92.43361        2.13833       81.29724
H         91.37892        1.18513       83.76818
H         90.58664        1.15625       82.17527
N         89.53689        3.69710       82.38079
C         88.41345        4.60170       82.60415
C         87.27645        4.34599       81.60183
O         86.31030        5.09619       81.61015
C         88.89827        6.07025       82.59229
C         89.51994        6.58439       81.32066
O         89.95937        7.85584       81.27882
O         89.64052        5.88114       80.33399
H         89.95367        3.67994       81.44733
H         87.98619        4.44492       83.61928
H         89.65042        6.18489       83.40245
H         88.03563        6.72645       82.83901
N         87.29557        3.27819       80.74560
C         86.22560        2.95715       79.80923
C         86.20051        3.80777       78.55175
O         85.39448        3.49786       77.68354
H         88.06103        2.59384       80.80234
H         85.24135        2.97189       80.32738
H         86.39238        1.91647       79.45445
N         87.03031        4.87343       78.35842
C         87.06291        5.66248       77.12795
C         88.48263        5.77249       76.58424
O         89.41237        5.28945       77.21644
C         86.46943        7.05886       77.39994
C         84.96526        6.96195       77.70641
C         84.35262        8.31766       77.93104
N         84.71790        9.07528       78.99045
O         83.50301        8.73070       77.15571
H         87.65747        5.16171       79.11764
H         86.45467        5.17746       76.33154
H         86.58288        7.69750       76.49802
H         87.01689        7.53967       78.23976
H         84.78012        6.33456       78.60398
H         84.46586        6.48032       76.83580
H         85.41751        8.73512       79.66581
H         84.28714        9.99901       79.14413
N         88.71183        6.37428       75.38138
C         90.02919        6.52322       74.76199
C         90.25530        7.99557       74.43135
O         89.39465        8.58443       73.78789
C         90.10782        5.65817       73.47084
C         91.50850        5.73942       72.83448
C         89.78723        4.18304       73.76810
H         87.89666        6.71655       74.84694
H         90.83241        6.16052       75.44360
H         89.35999        6.02696       72.73364
H         91.54832        5.12753       71.90812
H         91.76279        6.78276       72.55740
H         92.27997        5.35948       73.53927
H         90.50372        3.76552       74.50696
H         88.75744        4.07542       74.16833
H         89.84529        3.58163       72.83536
N         91.40498        8.64238       74.78931
C         91.66843       10.05016       74.46889
C         92.76198       10.17184       73.41482
O         93.19772        9.15412       72.89787
C         91.95478       10.89482       75.74050
C         93.32738       10.73599       76.35522
N         93.70567        9.59452       76.96188
O         94.09977       11.68259       76.33510
H         92.14001        8.09366       75.25435
H         90.75886       10.50499       74.02003
H         91.16861       10.71467       76.50424
H         91.86203       11.96230       75.44670
H         93.05286        8.81201       77.04900
H         94.64171        9.51421       77.38597
N         93.21859       11.39204       73.00647
C         94.21487       11.56760       71.95079
C         95.56174       10.94951       72.31241
O         96.19600       10.37089       71.44263
C         94.40989       13.06440       71.62133
C         95.13687       13.23931       70.30660
C         94.52030       12.81549       69.11458
C         96.41328       13.82096       70.24609
C         95.16793       12.96254       67.88773
C         97.06364       13.96331       69.01337
C         96.44133       13.53323       67.83050
O         97.05351       13.66278       66.63627
H         92.81094       12.23659       73.43407
H         93.81199       11.07037       71.04131
H         94.94520       13.55655       72.46396
H         93.42368       13.56608       71.51174
H         93.53145       12.37410       69.13340
H         96.90820       14.15529       71.14899
H         94.67701       12.63123       66.98092
H         98.05048       14.40666       68.97762
H         97.93611       14.04885       66.54792
N         96.06976       11.05456       73.57560
C         97.34126       10.45120       73.98645
C         97.33276        8.92959       73.84330
O         98.40367        8.34341       73.76577
C         97.64832       10.84828       75.45088
C         98.98587       10.31272       75.98801
C         99.22902       10.79343       77.38970
O         99.34966        9.90689       78.39662
O         99.32699       11.98770       77.62289
H         95.52568       11.58531       74.26939
H         98.13631       10.86466       73.32619
H         96.82843       10.47865       76.10741
H         97.66379       11.95917       75.50392
H         99.82065       10.65201       75.33861
H         98.97055        9.20281       76.00343
N         96.16704        8.22686       73.80117
C         96.08913        6.77459       73.68532
C         95.51584        6.35304       72.33712
O         95.41716        5.15814       72.09563
C         95.20629        6.22787       74.82005
C         95.70582        6.65789       76.20552
C         94.76927        6.15970       77.25461
O         95.18477        5.47710       78.17156
O         93.46311        6.46988       77.19710
H         95.28288        8.73814       73.88148
H         97.10126        6.32068       73.76402
H         95.16359        5.11745       74.76654
H         94.17463        6.62272       74.67735
H         95.73576        7.76193       76.27190
H         96.72940        6.26575       76.38642
N         95.13563        7.27174       71.40306
C         94.61954        6.94406       70.09366
H         93.60576        7.38319       69.98316
H         95.28467        7.39223       69.32454
H         94.56176        5.85093       69.92206
H         95.21211        8.26815       71.60650
Ca        92.01344        5.18212       78.30473
O         93.21821        8.40275       79.77233
H         93.47266        9.35887       79.74004
H         94.04991        7.91879       79.53940
O         90.37056        8.25760       78.16357
H         89.40830        8.21015       78.39041
H         90.69406        9.06694       78.63308

Ca 1.0



