%chk=holoCaM-CaMKII.loop2.water2.frame473.chk
%nprocshared=20
%mem=10GB
%nosave
#b3lyp/svp scf=(tight,noincore,xqc) Test 
#IOP(5/87=12) Density=Current Pop=(MK,readradii) iop(6/33=2) iop(6/42=6)

holoCaM-CaMKII.loop2.water2.frame473 

   -2  1 
C         68.32362       52.45227       87.85824
C         69.04714       53.36063       88.81419
O         70.17841       53.07061       89.17533
H         67.31105       52.84222       87.61559
H         68.89605       52.37120       86.91044
H         68.20937       51.44472       88.30738
N         68.44986       54.50259       89.24817
C         69.08577       55.46777       90.13705
C         69.34979       54.88990       91.51743
O         68.41544       54.43090       92.15887
C         68.19268       56.72179       90.23058
C         68.69270       57.77866       91.17663
O         69.93026       58.31382       91.07665
O         67.94549       58.17124       92.05762
H         67.50576       54.71623       88.88943
H         70.03954       55.76859       89.67578
H         67.17118       56.42129       90.55477
H         68.10491       57.16559       89.21996
N         70.60776       54.93701       92.05214
C         70.94131       54.45461       93.38962
C         71.42620       55.56759       94.32421
O         71.63917       55.27319       95.49227
C         72.02051       53.36999       93.27202
H         71.36355       55.34585       91.48675
H         70.04417       54.00335       93.86393
H         72.26764       52.94876       94.26984
H         71.66453       52.54272       92.62198
H         72.94918       53.79191       92.82736
N         71.66067       56.84455       93.89447
C         72.19510       57.90856       94.75163
C         71.39081       59.21867       94.68844
O         71.78180       60.16173       95.36299
C         73.68648       58.13941       94.40839
C         73.96243       58.20488       92.93270
O         74.76225       57.43563       92.42499
O         73.29654       59.06422       92.15386
H         71.54098       57.06493       92.89711
H         72.17673       57.60696       95.82216
H         74.27709       57.28869       94.81376
H         74.05223       59.05935       94.91436
N         70.25015       59.35548       93.95255
C         69.43665       60.57275       93.92872
C         70.08655       61.80375       93.29496
O         69.47906       62.86265       93.36343
H         69.89468       58.53720       93.45619
H         69.15933       60.81663       94.97774
H         68.49293       60.37673       93.37681
N         71.31146       61.76553       92.69688
C         72.05328       62.96165       92.27948
C         71.65980       63.56304       90.91684
O         72.33718       64.48724       90.48726
C         73.57391       62.67226       92.34132
C         74.09890       61.69125       91.32567
N         75.41440       61.38809       91.31035
O         73.35225       61.15965       90.52098
H         71.80293       60.86759       92.68412
H         71.90798       63.74567       93.05649
H         73.81676       62.28595       93.35695
H         74.12553       63.62640       92.20482
H         76.06299       61.81835       91.98462
H         75.78365       60.72001       90.62301
N         70.57948       63.14140       90.19756
C         70.17234       63.73860       88.92410
C         70.97568       63.32016       87.68890
O         70.63028       63.78586       86.61257
H         69.94647       62.45036       90.61732
H         70.17066       64.84753       89.02238
H         69.12565       63.42935       88.71977
N         72.03641       62.46412       87.74380
C         72.83035       62.04368       86.58269
C         72.98454       60.53006       86.50967
O         73.33232       59.91909       87.50897
C         74.25448       62.64886       86.66251
C         74.24903       64.14449       86.35700
O         74.82742       62.43964       87.92959
H         72.32862       62.11930       88.66002
H         72.38715       62.39470       85.62410
H         74.89613       62.19375       85.86822
H         75.25299       61.54432       87.91883
H         73.62706       64.70009       87.08746
H         75.28916       64.53319       86.39077
H         73.85280       64.31630       85.33190
N         72.88665       59.87785       85.31025
C         73.32815       58.49157       85.13902
C         74.83766       58.44444       85.39316
O         75.55991       59.19552       84.75050
C         73.05343       57.93894       83.69521
C         71.58808       58.07791       83.19871
C         73.49373       56.46066       83.59764
C         70.53767       57.40324       84.07213
H         72.59016       60.41123       84.48017
H         72.77909       57.83934       85.85400
H         73.66829       58.51564       82.96876
H         71.51822       57.64407       82.17675
H         71.31853       59.14991       83.11034
H         72.94896       55.82544       84.32805
H         73.31340       56.06522       82.57619
H         74.57723       56.35520       83.79906
H         70.52868       57.90028       85.04907
H         69.53340       57.53294       83.61725
H         70.72659       56.31775       84.19566
N         75.38546       57.55284       86.26719
C         76.82702       57.42615       86.49893
C         77.34586       56.15683       85.84245
O         76.57153       55.46323       85.20787
C         77.12850       57.40548       88.01288
C         76.67336       58.64691       88.71571
O         75.48664       58.91502       88.78396
O         77.57472       59.45062       89.31146
H         74.76075       56.88845       86.74198
H         77.38033       58.27379       86.03672
H         78.22430       57.32066       88.16572
H         76.64318       56.52546       88.48924
N         78.65850       55.79797       85.91987
C         79.18845       54.58963       85.29278
C         78.54039       53.30742       85.83712
O         78.05805       52.53982       85.01643
C         80.72567       54.52935       85.41988
C         81.31013       53.39077       84.61417
C         81.19905       53.38492       83.21077
C         81.97622       52.33049       85.25156
C         81.74419       52.33838       82.46211
C         82.51676       51.28290       84.49788
C         82.40201       51.28757       83.10493
H         79.31197       56.41833       86.42221
H         78.96753       54.66154       84.20406
H         81.01143       54.44355       86.48425
H         81.17084       55.47517       85.04195
H         80.69738       54.19320       82.69369
H         82.07287       52.31079       86.32972
H         81.65778       52.34361       81.38290
H         83.02611       50.46695       84.99359
H         82.82363       50.47806       82.52312
N         78.46081       52.98859       87.17537
C         77.87678       51.74503       87.68640
C         76.35867       51.66119       87.54184
O         75.78550       50.69491       88.02665
C         78.31304       51.73368       89.15745
C         78.30479       53.20260       89.50337
C         78.95328       53.81140       88.26548
H         78.31648       50.85028       87.19439
H         77.72442       51.07261       89.82971
H         79.37740       51.40740       89.20098
H         77.24257       53.53043       89.54782
H         78.79940       53.47522       90.45972
H         78.63838       54.86932       88.21312
H         80.05747       53.72157       88.31593
N         75.64674       52.60029       86.86391
C         74.20681       52.56951       86.67187
C         73.93391       52.29037       85.20470
O         73.28155       51.29981       84.90695
C         73.62442       53.90469       87.17693
C         73.92248       54.05255       88.68331
C         73.49105       55.35164       89.28555
O         73.60401       55.50782       90.48953
O         72.97787       56.34612       88.54348
H         76.13405       53.39559       86.44653
H         73.73555       51.74657       87.25642
H         72.52497       53.93648       87.00977
H         74.08708       54.73930       86.61316
H         75.00816       53.95648       88.88214
H         73.38967       53.23408       89.21569
N         74.47391       53.07500       84.23121
C         74.39090       52.78480       82.81527
H         75.42122       52.64463       82.42035
H         73.81326       51.86201       82.60327
H         73.92249       53.63747       82.28487
H         75.01671       53.89860       84.49782
Ca        71.49640       57.64757       89.60708
O         70.35791       60.34464       89.06183
H         69.38377       60.30950       88.89225
H         70.43870       60.40902       90.04491
O         70.11154       58.12239       87.34724
H         69.13568       57.97308       87.36215
H         70.50122       57.21643       87.24914

Ca 1.0



