%chk=holoCaM.loop1.water2.frame302.chk
%nprocshared=20
%mem=10GB
%nosave
#b3lyp/svp scf=(tight,noincore,xqc) Test 
#IOP(5/87=12) Density=Current Pop=(MK,readradii) iop(6/33=2) iop(6/42=6)

holoCaM.loop1.water2.frame302 

   0  1 
C         38.81270       48.91745       46.79642
C         37.84837       48.44878       45.75164
O         38.20104       47.56907       44.97928
H         39.71837       49.32747       46.30448
H         38.36382       49.70652       47.43543
H         39.09853       48.06020       47.44127
N         36.59565       48.97894       45.68054
C         35.60810       48.52742       44.71254
C         36.08350       48.85331       43.29464
O         36.09473       50.01443       42.91119
C         34.24048       49.16165       45.06156
C         33.09862       48.67272       44.23785
O         33.27903       47.87316       43.34229
O         31.85568       49.11135       44.50104
H         36.32670       49.69790       46.37043
H         35.50501       47.42435       44.83722
H         34.29812       50.26749       44.97202
H         34.00049       48.90575       46.11707
N         36.58943       47.86163       42.50444
C         37.20507       48.08293       41.19318
C         36.19506       48.44994       40.11184
O         36.59812       49.03495       39.11716
C         38.05706       46.82987       40.83279
C         38.96353       46.92130       39.59016
C         38.29109       46.51434       38.26658
C         39.28525       46.65637       37.10361
N         38.69304       46.21531       35.84161
H         36.65042       46.92158       42.91681
H         37.91539       48.93217       41.30836
H         37.44064       45.90516       40.78657
H         38.75103       46.71348       41.69578
H         39.78613       46.18453       39.73258
H         39.42360       47.93159       39.54096
H         37.40250       47.12394       38.03915
H         37.96123       45.45454       38.34504
H         40.19669       46.05091       37.30741
H         39.58789       47.72380       37.01342
H         37.83282       46.77125       35.63062
H         39.38619       46.35924       35.07179
H         38.45444       45.19841       35.89501
N         34.87519       48.12998       40.22989
C         33.87124       48.38693       39.19023
C         32.77721       49.35011       39.63149
O         31.94362       49.69229       38.80324
C         33.24487       47.05263       38.69247
C         32.56394       46.19967       39.75199
O         32.02448       45.15457       39.42949
O         32.59473       46.56401       41.04900
H         34.58817       47.65457       41.08950
H         34.35445       48.87145       38.31308
H         34.04804       46.44105       38.22826
H         32.50388       47.28883       37.89674
N         32.70144       49.83089       40.90162
C         31.66638       50.74264       41.35114
C         30.27414       50.18782       41.14966
O         29.46111       50.86987       40.54177
H         33.40534       49.55316       41.59375
H         31.76467       51.71319       40.81710
H         31.81273       50.93924       42.43519
N         29.92052       48.96719       41.64632
C         28.55578       48.44672       41.58398
C         28.00863       48.22970       42.99328
O         26.96789       47.60305       43.13780
C         28.47888       47.19286       40.67372
C         29.04450       45.91636       41.22092
O         29.05363       44.91244       40.52749
O         29.46038       45.83664       42.48826
H         30.63781       48.39661       42.11981
H         27.88335       49.18012       41.08834
H         28.98637       47.43549       39.71465
H         27.41138       46.98028       40.44821
N         28.63420       48.77925       44.08000
C         28.14049       48.65631       45.43643
C         28.53764       47.36778       46.12677
O         28.10748       47.20418       47.25915
H         29.43443       49.40969       43.94372
H         27.03635       48.78919       45.44094
H         28.56629       49.48073       46.04971
N         29.38828       46.44261       45.57600
C         29.77935       45.21728       46.28566
C         31.11827       44.59299       45.75628
O         31.99727       45.59993       45.35082
C         28.66077       44.12717       46.20830
C         27.32599       44.48330       46.87217
O         28.43813       43.74140       44.87576
H         29.84008       46.66533       44.68216
H         29.98475       45.50549       47.34262
H         29.01215       43.23025       46.75539
H         28.03944       44.51635       44.39996
H         27.48479       44.74579       47.93943
H         26.81679       45.31398       46.34321
H         26.64723       43.60568       46.82671
N         31.73163       43.82277       46.85718
C         33.08333       43.24545       46.71191
C         33.00807       41.71930       46.55326
O         32.28666       41.06101       47.28940
C         33.93076       43.70163       47.94516
C         34.17969       45.23744       47.83103
C         35.26749       42.94622       48.04998
C         35.00550       45.85446       48.96133
H         31.08254       43.22655       47.41684
H         33.60076       43.65313       45.81973
H         33.36402       43.47445       48.87537
H         33.20285       45.76516       47.80907
H         34.70961       45.45645       46.87596
H         35.09949       41.85375       48.13315
H         35.90696       43.16079       47.17787
H         35.81489       43.23438       48.96973
H         35.09508       46.94884       48.78869
H         34.51486       45.68371       49.94099
H         36.03714       45.44684       48.97922
N         33.81271       41.09716       45.64157
C         33.86392       39.65738       45.38216
C         35.16219       39.08121       45.93513
O         35.88521       39.79575       46.60509
C         33.77951       39.39169       43.84727
C         32.52855       39.98639       43.19905
O         34.94304       39.83022       43.18316
H         34.48065       41.67800       45.12825
H         33.01737       39.13580       45.88049
H         33.70714       38.29826       43.67738
H         34.90420       40.81569       43.08823
H         32.55066       41.08940       43.28484
H         32.50446       39.71931       42.12064
H         31.61271       39.59184       43.68620
N         35.54176       37.79882       45.67831
C         36.82906       37.24526       46.10238
C         37.99792       38.04901       45.53498
O         38.86327       38.45616       46.29644
C         36.97158       35.76100       45.66718
C         35.98146       34.84792       46.39155
O         36.78374       35.62327       44.27890
H         34.90817       37.20183       45.12893
H         36.89922       37.27223       47.21362
H         37.98939       35.40744       45.96476
H         37.65783       35.37954       43.87674
H         34.93189       35.12406       46.16245
H         36.14549       33.79682       46.07148
H         36.14080       34.90848       47.48899
N         38.08919       38.29159       44.19795
C         39.22910       38.95036       43.55529
C         39.44113       40.35002       44.10121
O         40.54046       40.65213       44.54514
C         39.02979       39.00350       42.02235
C         38.95797       37.59176       41.40795
C         38.68564       37.63715       39.90195
C         38.52591       36.21392       39.34588
N         38.20499       36.23687       37.92024
H         37.30424       37.97802       43.61135
H         40.15176       38.35628       43.74563
H         39.88619       39.54214       41.55819
H         38.09730       39.56395       41.79076
H         38.13476       37.01480       41.87295
H         39.91139       37.05244       41.60195
H         39.51799       38.15915       39.38118
H         37.74198       38.19768       39.72291
H         37.70359       35.69632       39.88996
H         39.46558       35.63984       39.50644
H         38.08540       35.25438       37.58259
H         37.31103       36.75698       37.76288
H         38.97919       36.69065       37.38394
N         38.41759       41.24680       44.12317
C         38.53332       42.60439       44.65937
C         39.04947       42.55536       46.09259
O         40.07229       43.16297       46.37569
C         37.16167       43.32025       44.57743
C         36.72117       43.56357       43.11916
C         35.32143       44.11026       43.01686
O         34.27618       43.38464       43.44446
O         35.11170       45.18292       42.48052
H         37.50250       40.92330       43.77599
H         39.26258       43.18944       44.05550
H         37.20803       44.30266       45.09807
H         36.41838       42.68625       45.08947
H         36.73524       42.61933       42.54012
H         37.44116       44.26775       42.65018
N         38.41817       41.79971       47.02909
C         38.88087       41.62442       48.39097
H         39.80149       42.20510       48.60513
H         38.08520       41.93992       49.09676
H         39.09868       40.54812       48.56472
H         37.57947       41.29135       46.75081
Ca        32.00310       45.61058       43.04158
O         30.60726       42.61998       43.41252
H         30.36716       43.46151       42.95460
H         30.22058       41.91209       42.83976
O         32.98612       42.59134       40.84715
H         33.25898       41.69890       40.51755
H         33.53890       43.22470       40.32478

Ca 1.0



