%chk=holoCaM.loop2.water2.frame61.chk
%nprocshared=20
%mem=10GB
%nosave
#b3lyp/svp scf=(tight,noincore,xqc) Test 
#IOP(5/87=12) Density=Current Pop=(MK,readradii) iop(6/33=2) iop(6/42=6)

holoCaM.loop2.water2.frame61 

   -2  1 
C         69.71033       24.96171      108.49941
C         68.83666       26.12884      108.13964
O         68.51209       26.30207      106.97534
H         70.64810       25.32286      108.97160
H         69.17301       24.30802      109.21955
H         69.96692       24.36225      107.60039
N         68.40291       26.96949      109.11677
C         67.50145       28.09899      108.88312
C         68.12118       29.15624      107.96491
O         69.32340       29.14561      107.74070
C         67.13762       28.70867      110.26170
C         66.33491       29.97865      110.23915
O         66.87527       30.99826      110.63930
O         65.05180       30.06359      109.81552
H         68.70464       26.76234      110.08270
H         66.58323       27.71362      108.40434
H         68.10479       28.94953      110.76167
H         66.61707       27.96042      110.89348
N         67.32084       30.12753      107.42923
C         67.79163       31.27458      106.65425
C         66.62886       32.24566      106.41356
O         66.37413       32.62322      105.27910
C         68.43530       30.82734      105.32813
H         66.31284       30.06868      107.62840
H         68.54574       31.81974      107.26256
H         67.69656       30.27136      104.71088
H         68.78714       31.71238      104.75522
H         69.31358       30.17452      105.49884
N         65.87460       32.66804      107.47557
C         64.71805       33.57979      107.39142
C         63.99432       33.85108      108.74011
O         63.12776       34.71449      108.74526
C         63.66685       33.08351      106.36163
C         63.16262       31.71408      106.69175
O         62.54778       31.50579      107.86210
O         63.30076       30.79056      105.90554
H         66.17894       32.30567      108.37926
H         65.10065       34.55971      107.03287
H         64.08377       33.07524      105.33702
H         62.80621       33.78597      106.33128
N         64.25039       33.17143      109.89970
C         63.58936       33.41828      111.17065
C         62.10966       33.09883      111.16717
O         61.32623       33.97116      111.51318
H         64.95857       32.44567      109.93807
H         63.76701       34.46994      111.48284
H         64.05221       32.76089      111.94149
N         61.65941       31.85020      110.84359
C         60.26138       31.43603      110.97153
C         60.07861       30.24647      111.92508
O         58.94764       29.80725      112.08639
C         59.60319       31.18130      109.59515
C         60.25805       30.20095      108.60831
N         59.26603       29.84164      107.60153
O         60.75443       29.04252      109.19944
H         62.34521       31.15400      110.52327
H         59.65693       32.25624      111.41834
H         59.53509       32.15004      109.05308
H         58.55691       30.85514      109.78856
H         59.10150       30.65387      106.96669
H         59.60765       29.03731      107.04216
N         61.11423       29.70407      112.63349
C         60.96017       28.61399      113.59738
C         60.66815       27.23822      112.99882
O         60.59461       26.28717      113.76281
H         62.05086       30.12256      112.55529
H         60.17420       28.88420      114.33686
H         61.91713       28.51338      114.15280
N         60.48840       27.05146      111.66231
C         60.20246       25.77467      111.01138
C         61.15716       25.50490      109.85412
O         61.49182       26.41411      109.10965
C         58.76413       25.77458      110.44217
C         57.72141       25.75790      111.55776
O         58.54048       26.89556      109.62318
H         60.51384       27.87031      111.06747
H         60.26826       24.92831      111.73117
H         58.59804       24.83640      109.85957
H         58.94693       26.70177      108.73912
H         57.85773       24.85309      112.18941
H         57.80438       26.66277      112.19424
H         56.70415       25.71979      111.11378
N         61.53156       24.22671      109.57474
C         62.28280       23.84975      108.37745
C         61.40337       24.05281      107.13888
O         60.31309       23.49946      107.09288
C         62.76142       22.36361      108.48151
C         63.69947       22.19084      109.71139
C         63.48696       21.93168      107.19095
C         64.17374       20.75493      109.94385
H         61.21993       23.48320      110.21781
H         63.20159       24.47084      108.30282
H         61.87071       21.70833      108.60952
H         63.16867       22.49854      110.63516
H         64.59165       22.84299      109.60079
H         64.39258       22.55143      107.02292
H         63.77840       20.86485      107.22984
H         62.81693       22.02032      106.31604
H         63.30403       20.07592      110.06638
H         64.81381       20.39638      109.11315
H         64.78774       20.71870      110.86843
N         61.85403       24.77473      106.06858
C         61.12556       24.90524      104.80365
C         61.63915       23.88857      103.79422
O         62.56738       23.15746      104.10596
C         61.30204       26.32163      104.21560
C         60.84133       27.40339      105.13786
O         61.45415       27.58668      106.32310
O         59.94173       28.15347      104.79400
H         62.80136       25.16396      106.11334
H         60.04397       24.69822      104.96385
H         60.72750       26.40048      103.26732
H         62.37445       26.50335      103.98472
N         61.06279       23.76402      102.56104
C         61.49875       22.76574      101.58949
C         62.95506       22.95477      101.17505
O         63.67194       21.96953      101.24273
C         60.55450       22.67045      100.37142
C         61.01879       21.58609       99.41985
C         61.13801       20.25097       99.85461
C         61.36219       21.90436       98.09481
C         61.60506       19.26246       98.98550
C         61.82238       20.90904       97.22651
C         61.94757       19.59070       97.67259
H         60.25999       24.36658      102.32271
H         61.42241       21.77682      102.09282
H         60.48906       23.63947       99.84503
H         59.52985       22.42527      100.72508
H         60.88221       19.97105      100.86805
H         61.28157       22.92233       97.73479
H         61.70472       18.24199       99.33285
H         62.08793       21.16092       96.20833
H         62.31074       18.82308       97.00187
N         63.49517       24.14067      100.74674
C         64.92173       24.31802      100.49627
C         65.77667       23.84441      101.66383
O         66.72183       23.09608      101.45726
C         65.07323       25.84005      100.32794
C         63.74939       26.21452       99.71193
C         62.77564       25.38178      100.54392
H         65.19296       23.79047       99.55442
H         65.09308       26.34544      101.32035
H         65.97812       26.15382       99.76445
H         63.52473       27.30199       99.68333
H         63.74857       25.82230       98.66830
H         62.56444       25.84326      101.53143
H         61.85042       25.27825       99.95121
N         65.48203       24.25832      102.92911
C         66.28645       23.93768      104.10863
C         66.26010       22.45303      104.46720
O         67.07416       22.03453      105.27830
C         65.78276       24.75380      105.31863
C         65.86058       26.27678      105.06892
C         65.22031       27.09314      106.15429
O         64.62967       26.51324      107.21507
O         65.20833       28.30858      106.05651
H         64.65429       24.86179      103.04122
H         67.33760       24.23137      103.89373
H         66.37146       24.50688      106.22967
H         64.73438       24.45286      105.49648
H         65.33622       26.55895      104.13648
H         66.92495       26.57022      104.95972
N         65.33639       21.60495      103.94053
C         65.28845       20.19251      104.24619
H         64.42918       19.72410      103.71692
H         66.22238       19.69991      103.90475
H         65.15687       20.03771      105.33644
H         64.61995       21.97229      103.31699
Ca        63.07526       29.11883      109.16897
O         65.34493       25.67116      109.94962
H         65.46484       25.06394      109.17846
H         66.18424       25.57883      110.46513
O         63.47088       28.08275      111.75687
H         64.14244       28.35161      112.43124
H         63.83501       27.26361      111.34139

Ca 1.0



