%chk=holoCaM.loop3.water2.frame160.chk
%nprocshared=20
%mem=10GB
%nosave
#b3lyp/svp scf=(tight,noincore,xqc) Test 
#IOP(5/87=12) Density=Current Pop=(MK,readradii) iop(6/33=2) iop(6/42=6)

holoCaM.loop3.water2.frame160 

   0  1 
C         89.90400      102.38110       91.22457
C         88.91288      101.53374       91.96268
O         88.87890      101.58161       93.18434
H         90.60196      101.72490       90.66396
H         89.37527      103.04895       90.51291
H         90.49128      103.00464       91.93257
N         88.04967      100.73561       91.27505
C         87.08390       99.87732       91.94792
C         87.83433       98.74338       92.62479
O         88.50186       97.99119       91.92607
C         86.06040       99.33066       90.93107
C         84.90703       98.60993       91.57626
O         84.80424       98.50008       92.91399
O         84.02574       98.14918       90.87529
H         88.07331      100.76076       90.24308
H         86.51890      100.49914       92.67844
H         86.56810       98.65903       90.20345
H         85.62987      100.18498       90.36524
N         87.81942       98.58601       93.98006
C         88.66514       97.59438       94.64320
C         88.06992       96.20038       94.66051
O         88.80014       95.28389       95.01414
C         89.08309       98.05853       96.04671
C         89.92283       99.33999       95.94256
C         90.50835       99.75070       97.29132
C         91.41812      100.97366       97.11688
N         92.05686      101.33543       98.37942
H         87.29755       99.26805       94.55119
H         89.61130       97.50320       94.06079
H         89.71908       97.26784       96.50356
H         88.19229       98.21335       96.69413
H         89.30943      100.17030       95.53165
H         90.77030       99.14818       95.24670
H         91.11263       98.90759       97.69230
H         89.68932       99.98022       98.00741
H         90.82126      101.83350       96.73834
H         92.20960      100.74184       96.36843
H         92.67464      102.16405       98.22218
H         91.33232      101.57665       99.09330
H         92.64263      100.53911       98.72208
N         86.79795       95.93896       94.24125
C         86.30662       94.58003       94.03945
C         86.12079       94.31639       92.53220
O         85.80194       93.19396       92.16734
C         85.06504       94.31674       94.92759
C         83.84020       94.96901       94.38959
O         83.21343       95.97972       95.01146
O         83.38445       94.56726       93.33517
H         86.17821       96.71755       93.98273
H         87.07184       93.85200       94.38376
H         85.28019       94.67173       95.95908
H         84.85166       93.22699       94.97932
N         86.38051       95.29314       91.59939
C         86.43232       95.07803       90.16170
C         85.11507       94.80220       89.47105
O         85.16260       94.52055       88.28137
H         86.67148       96.22847       91.90022
H         87.13370       94.23822       89.96750
H         86.85929       95.98454       89.67750
N         83.91041       94.84031       90.10929
C         82.67927       94.41969       89.44242
C         82.23484       95.35456       88.31384
O         81.35711       94.96327       87.55831
C         81.53762       94.19279       90.46449
C         80.78247       95.46531       90.89057
N         79.82065       95.20597       91.95134
O         81.60728       96.54667       91.20761
H         83.88650       95.08320       91.10356
H         82.90820       93.41646       89.01366
H         81.93855       93.64140       91.34246
H         80.77403       93.53659       89.99333
H         79.17114       94.45007       91.63605
H         79.24570       96.07004       92.07187
N         82.75005       96.61595       88.17434
C         82.34906       97.55214       87.12815
C         81.61542       98.78687       87.65218
O         81.26781       99.63075       86.83816
H         83.45586       96.94658       88.84173
H         81.67346       97.06070       86.39581
H         83.26250       97.86603       86.57967
N         81.28648       98.93531       88.96816
C         80.44774      100.00451       89.51544
C         81.12185      100.68456       90.69951
O         81.65712       99.99863       91.56040
C         79.13564       99.38548       90.02599
C         78.33847       98.74272       88.91936
C         78.35440       97.34925       88.76713
C         77.56254       99.52061       88.04230
C         77.61280       96.73720       87.75661
C         76.80359       98.90420       87.03980
C         76.82858       97.50829       86.89435
O         76.10308       96.89701       85.93650
H         81.57066       98.20333       89.62046
H         80.18290      100.76051       88.74270
H         78.49809      100.15111       90.52313
H         79.38782       98.62628       90.79835
H         78.95030       96.73694       89.42508
H         77.52806      100.59842       88.14691
H         77.64475       95.66058       87.64993
H         76.19456       99.50973       86.37997
H         75.53379       97.38850       85.32792
N         81.06963      102.03940       90.83522
C         81.63073      102.78546       91.96195
C         80.53898      103.60135       92.65331
O         79.80932      104.32323       91.98642
C         82.78863      103.68424       91.44130
C         83.95972      102.76334       90.99864
C         83.25645      104.69312       92.51251
C         85.14066      103.49989       90.37243
H         80.60340      102.58549       90.09363
H         82.07447      102.10577       92.72367
H         82.41789      104.27321       90.57283
H         83.59364      102.03801       90.24138
H         84.32928      102.18405       91.87523
H         83.63690      104.17128       93.41312
H         84.04555      105.36127       92.11694
H         82.42457      105.36523       92.80796
H         85.61980      104.19001       91.09472
H         85.90811      102.75862       90.06501
H         84.80571      104.06310       89.47695
N         80.45797      103.60604       94.01807
C         79.54266      104.43371       94.79837
C         80.30776      105.55296       95.49972
O         81.51635      105.65341       95.33296
C         78.79818      103.55090       95.82240
O         79.68667      103.02238       96.77500
H         81.13571      103.04374       94.54625
H         78.79020      104.91281       94.13515
H         78.23998      102.73926       95.30155
H         78.03171      104.14095       96.36614
H         79.92578      102.10545       96.48237
N         79.65667      106.43812       96.30795
C         80.31768      107.53001       97.02196
C         81.42488      107.01272       97.91706
O         82.52548      107.54055       97.86066
C         79.30189      108.30731       97.86644
H         78.63842      106.32555       96.43048
H         80.75163      108.24577       96.28756
H         78.50834      108.72738       97.21266
H         78.83004      107.64844       98.62641
H         79.80519      109.15096       98.38695
N         81.20546      105.95818       98.74996
C         82.24099      105.38076       99.59936
C         83.43400      104.91025       98.78051
O         84.54767      105.32748       99.06801
C         81.66636      104.20223      100.39742
H         80.26423      105.53528       98.75947
H         82.57995      106.14600      100.33353
H         82.44422      103.77252      101.06416
H         80.81908      104.54801      101.02748
H         81.29642      103.40402       99.71839
N         83.27415      104.03146       97.74909
C         84.39528      103.48072       96.98177
C         85.17076      104.52524       96.18088
O         86.21136      104.16911       95.64453
C         83.89893      102.39536       96.00189
C         83.28680      101.18182       96.71684
C         82.73780      100.20129       95.72188
O         83.19280       99.07165       95.65275
O         81.72232      100.55829       94.91469
H         82.31616      103.71715       97.53458
H         85.10410      103.01215       97.70035
H         84.74398      102.02653       95.37881
H         83.15830      102.86066       95.32605
H         82.45638      101.48159       97.38780
H         84.07644      100.69794       97.33201
N         84.73618      105.80803       96.02840
C         85.45790      106.81299       95.27225
H         86.41135      106.42931       94.85218
H         84.82393      107.16756       94.43279
H         85.69149      107.67298       95.93439
H         83.84652      106.09763       96.44340
Ca        81.91682       96.87416       93.43062
O         79.82572       95.55017       95.04684
H         79.21038       96.16009       94.56795
H         80.29316       96.13349       95.69597
O         79.39617       98.78760       93.70244
H         78.85150       99.31638       94.33658
H         79.96905       99.46042       93.26160

Ca 1.0



