%chk=holoCaM-CaMKII.loop2.water2.frame238.chk
%nprocshared=20
%mem=10GB
%nosave
#b3lyp/svp scf=(tight,noincore,xqc) Test 
#IOP(5/87=12) Density=Current Pop=(MK,readradii) iop(6/33=2) iop(6/42=6)

holoCaM-CaMKII.loop2.water2.frame238 

   -2  1 
C         84.74532       36.15235       39.87825
C         85.42757       36.62408       41.13479
O         84.84291       36.52501       42.20312
H         83.80704       36.72119       39.71537
H         85.39504       36.28671       38.98623
H         84.50626       35.07119       39.96647
N         86.68832       37.13261       41.07768
C         87.45549       37.54525       42.24883
C         86.82927       38.72448       42.98181
O         86.52316       39.72948       42.35584
C         88.88661       37.91758       41.82578
C         89.71517       38.27912       43.02317
O         90.22903       39.38235       43.10260
O         89.86299       37.39577       44.02902
H         87.14441       37.18462       40.15297
H         87.54112       36.67453       42.93586
H         88.86371       38.76617       41.10645
H         89.35935       37.04654       41.32356
N         86.70278       38.68257       44.34132
C         86.18488       39.77137       45.15976
C         87.20571       40.30991       46.17023
O         86.86606       41.26633       46.85326
C         84.94987       39.26189       45.90937
H         87.00226       37.83282       44.82740
H         85.88112       40.62280       44.51371
H         84.18819       38.90244       45.18578
H         85.22835       38.41652       46.57767
H         84.49943       40.06873       46.52505
N         88.44546       39.75758       46.35111
C         89.40771       40.23989       47.34611
C         90.73385       40.65544       46.71066
O         91.15416       41.77929       46.94886
C         89.56291       39.22744       48.50645
C         89.78696       37.79558       48.12779
O         90.78513       37.45102       47.52526
O         88.89101       36.86943       48.51635
H         88.71476       38.93435       45.79874
H         89.02672       41.15267       47.85648
H         88.61372       39.24587       49.08567
H         90.37337       39.56214       49.19005
N         91.44535       39.82553       45.89716
C         92.71930       40.18352       45.28012
C         93.84198       39.25160       45.69948
O         94.95594       39.73036       45.85973
H         91.04740       38.91084       45.66627
H         93.02421       41.22284       45.53821
H         92.61038       40.15719       44.17621
N         93.63402       37.91494       45.89613
C         94.66490       36.99529       46.37850
C         95.02612       35.92461       45.35188
O         95.83653       35.06394       45.66568
C         94.23347       36.38895       47.73557
C         93.01540       35.49420       47.71903
N         92.57811       34.95138       48.87724
O         92.41768       35.25495       46.68118
H         92.69775       37.52766       45.72831
H         95.60712       37.54887       46.58356
H         94.03746       37.22696       48.44087
H         95.07895       35.79529       48.14538
H         93.06280       35.14192       49.76572
H         91.75152       34.34169       48.89057
N         94.52873       35.95594       44.08296
C         94.94519       35.04128       43.02898
C         94.40278       33.62602       43.12150
O         94.67900       32.86682       42.20255
H         93.90948       36.72931       43.80552
H         96.05422       35.02972       42.96685
H         94.56201       35.44440       42.06613
N         93.60294       33.19562       44.13808
C         92.96409       31.87792       44.15705
C         91.45355       32.03634       44.15169
O         90.96992       33.15827       44.22247
C         93.44517       31.05369       45.38029
C         94.91217       30.65210       45.21683
O         93.30243       31.77681       46.57763
H         93.39227       33.83460       44.91478
H         93.20488       31.30317       43.23558
H         92.87716       30.09930       45.45158
H         92.33820       31.97831       46.69176
H         95.22843       30.02127       46.07486
H         95.04227       30.05639       44.28670
H         95.56685       31.54680       45.16759
N         90.63594       30.94763       44.07683
C         89.18314       31.05547       44.06137
C         88.67876       30.58519       45.40634
O         88.87923       29.42646       45.74861
C         88.55306       30.23474       42.89110
C         89.17985       30.61558       41.52423
C         87.02204       30.43706       42.87133
C         88.67310       29.75639       40.35882
H         91.05320       30.00345       44.06271
H         88.88194       32.11669       43.92254
H         88.76692       29.15675       43.06820
H         90.27849       30.46016       41.57713
H         88.99122       31.68542       41.29605
H         86.77070       31.50170       42.67300
H         86.53565       29.80468       42.10334
H         86.57254       30.14150       43.83866
H         87.59235       29.91509       40.16978
H         89.21321       30.03378       39.42941
H         88.85532       28.67955       40.56371
N         88.01293       31.44301       46.22837
C         87.44956       31.03550       47.50512
C         86.04949       30.49123       47.30218
O         85.55562       30.52464       46.18614
C         87.49579       32.19983       48.51648
C         88.92115       32.48749       48.92725
O         89.79378       33.12685       48.12214
O         89.28945       32.16995       50.04604
H         87.82408       32.39933       45.90056
H         88.04180       30.19318       47.92782
H         86.95081       31.87611       49.42761
H         86.98246       33.11223       48.13419
N         85.37292       29.89461       48.32381
C         84.05883       29.28527       48.14708
C         83.00155       30.33881       47.79678
O         82.33150       30.13311       46.79615
C         83.67086       28.41540       49.36515
C         82.38056       27.66102       49.14793
C         81.24364       27.97461       49.91113
C         82.30383       26.62776       48.19538
C         80.05082       27.27096       49.72318
C         81.11062       25.91915       48.01839
C         79.98486       26.24173       48.78071
H         85.83547       29.82093       49.24388
H         84.13323       28.56454       47.29958
H         83.59430       29.01795       50.27944
H         84.47340       27.67121       49.56317
H         81.27835       28.76853       50.64657
H         83.16884       26.35981       47.60133
H         79.17820       27.52242       50.31151
H         81.05868       25.11742       47.29263
H         79.06182       25.69352       48.64279
N         82.80098       31.50174       48.51431
C         81.81323       32.52974       48.15953
C         81.94531       33.14905       46.76873
O         81.11370       33.97801       46.42210
C         82.05466       33.63917       49.19182
C         82.53192       32.86030       50.38738
C         83.48626       31.86504       49.73858
H         80.80727       32.06911       48.27782
H         82.92349       34.26164       48.87020
H         81.18560       34.30930       49.36442
H         82.98273       33.46614       51.20123
H         81.65728       32.30139       50.79533
H         84.46468       32.32376       49.48010
H         83.61975       31.05369       50.46525
N         82.95292       32.80511       45.92334
C         83.12939       33.32495       44.57789
C         82.76099       32.23589       43.58882
O         81.92565       32.47558       42.72994
C         84.59746       33.71760       44.37201
C         85.09231       34.82803       45.31297
C         86.58234       34.97110       45.18493
O         87.26774       35.81150       45.96342
O         87.21497       34.25955       44.42267
H         83.64874       32.12145       46.23161
H         82.48491       34.21273       44.38889
H         84.76229       34.04102       43.32110
H         85.21615       32.80928       44.55306
H         84.88517       34.54485       46.36809
H         84.58134       35.78999       45.09380
N         83.33172       30.99917       43.67414
C         83.02083       29.89649       42.79289
H         82.30337       30.18106       41.99742
H         83.95715       29.53489       42.31941
H         82.58353       29.06886       43.39114
H         84.00931       30.80594       44.41715
Ca        89.03856       34.75870       46.80192
O         88.95767       34.37334       41.87995
H         89.21206       34.47743       42.83028
H         88.04368       33.99453       41.90809
O         91.69493       35.58014       43.12516
H         91.86651       36.40773       42.61199
H         91.72726       34.86186       42.44644

Ca 1.0



