%chk=holoCaM.loop1.water2.frame232.chk
%nprocshared=20
%mem=10GB
%nosave
#b3lyp/svp scf=(tight,noincore,xqc) Test 
#IOP(5/87=12) Density=Current Pop=(MK,readradii) iop(6/33=2) iop(6/42=6)

holoCaM.loop1.water2.frame232 

   0  1 
C         44.18072      102.63195       55.63640
C         44.19573      103.92532       54.88554
O         44.77500      104.88393       55.36199
H         43.12294      102.37431       55.86442
H         44.63439      101.82444       55.02924
H         44.72659      102.73135       56.59869
N         43.53817      104.03003       53.70256
C         43.30298      105.30075       53.02475
C         42.40340      106.15353       53.91855
O         41.33297      105.69146       54.28794
C         42.66265      105.01220       51.65031
C         42.12315      106.23734       50.99113
O         40.94042      106.29962       50.69822
O         42.92765      107.27414       50.73165
H         43.11829      103.17180       53.31195
H         44.26663      105.82997       52.83721
H         41.82411      104.29340       51.76129
H         43.43393      104.54887       50.99247
N         42.79390      107.40009       54.32020
C         42.07308      108.20662       55.30368
C         41.42466      109.45548       54.71648
O         40.67632      110.08702       55.45073
C         43.05481      108.64205       56.42257
C         43.74036      107.48748       57.16541
C         42.77785      106.69968       58.06231
C         43.50910      105.57814       58.81477
N         42.63635      104.97469       59.82168
H         43.67256      107.77343       53.95432
H         41.23866      107.61360       55.73293
H         42.54664      109.28861       57.17008
H         43.85660      109.24974       55.94490
H         44.53424      107.91788       57.81392
H         44.24164      106.83754       56.43727
H         41.94869      106.25509       57.47181
H         42.35197      107.41162       58.80142
H         44.40615      105.98993       59.32786
H         43.84705      104.80175       58.09210
H         42.36572      105.69717       60.52907
H         41.77709      104.58097       59.37499
H         43.15272      104.20883       60.31148
N         41.65810      109.90123       53.44554
C         40.99644      111.08819       52.89455
C         40.35894      110.83359       51.52760
O         39.94339      111.79249       50.89127
C         41.92046      112.32833       52.94310
C         43.19171      112.26005       52.15740
O         43.48618      111.26927       51.51743
O         44.02460      113.31805       52.16645
H         42.34976      109.41381       52.85854
H         40.15001      111.39701       53.54719
H         42.19253      112.51462       54.00519
H         41.34705      113.21273       52.58789
N         40.11430      109.56869       51.07455
C         39.31277      109.30184       49.88809
C         40.03815      109.54854       48.58309
O         39.60264      110.37519       47.79537
H         40.37686      108.76188       51.65841
H         38.37085      109.88994       49.94414
H         39.02006      108.22890       49.88590
N         41.10286      108.76946       48.25393
C         41.77779      108.79755       46.95429
C         42.44373      107.46293       46.56949
O         43.04688      107.42670       45.50502
C         42.75184      109.99950       46.86472
C         43.61927      110.12346       48.08358
O         43.55302      111.13005       48.76859
O         44.37595      109.09715       48.49644
H         41.40411      108.09943       48.96266
H         41.02025      108.92656       46.14953
H         42.15241      110.93210       46.78648
H         43.36942      109.92785       45.94329
N         42.32579      106.30913       47.30065
C         42.88323      105.03625       46.86827
C         44.39356      104.96774       46.90276
O         44.91528      103.92361       46.53750
H         41.76367      106.27107       48.15535
H         42.51396      104.80559       45.84563
H         42.51912      104.23375       47.54774
N         45.16547      106.00546       47.33906
C         46.61728      105.93050       47.44031
C         47.05624      106.17512       48.87705
O         46.27905      106.67217       49.67995
C         47.29447      106.89382       46.43678
C         46.95627      106.52178       44.98172
O         46.95642      108.23308       46.69863
H         44.71774      106.87645       47.63673
H         46.95585      104.90332       47.18328
H         48.39629      106.79616       46.54374
H         46.01586      108.37736       46.41451
H         47.49658      107.19173       44.28026
H         47.26167      105.47418       44.77316
H         45.86603      106.61577       44.78743
N         48.27318      105.72516       49.28850
C         48.74117      105.74929       50.67028
C         50.08140      106.49457       50.74734
O         50.99236      106.21788       49.98180
C         48.69147      104.28651       51.23322
C         47.19572      103.96225       51.58087
C         49.58831      104.09295       52.46136
C         46.92755      102.61139       52.24627
H         48.87430      105.25002       48.59752
H         48.04934      106.32161       51.31596
H         49.07665      103.57809       50.46690
H         46.58457      104.01460       50.65492
H         46.80391      104.72991       52.28784
H         49.57200      103.03162       52.78737
H         50.64454      104.31791       52.20654
H         49.25616      104.73126       53.29453
H         47.41418      102.55507       53.24268
H         45.83384      102.50505       52.42102
H         47.27236      101.77741       51.60435
N         50.23544      107.47123       51.69121
C         51.36829      108.37109       51.88096
C         52.07879      108.01076       53.17660
O         51.73664      107.01513       53.78579
C         50.83097      109.83789       51.99482
C         50.13318      110.30886       50.70988
O         49.99860      109.95878       53.13349
H         49.49117      107.58466       52.37585
H         52.09398      108.29623       51.04377
H         51.67325      110.54444       52.13620
H         49.09814      110.28572       52.87640
H         50.83974      110.27187       49.85580
H         49.25150      109.67447       50.49111
H         49.79383      111.36173       50.83597
N         53.05275      108.80780       53.68949
C         53.62281      108.61331       55.02231
C         52.53154      108.68208       56.09227
O         52.46099      107.78940       56.92565
C         54.71234      109.68063       55.30673
C         55.93880      109.46333       54.40856
O         54.19022      110.97176       55.11236
H         53.35609      109.62238       53.13838
H         54.11095      107.61446       55.08958
H         55.04212      109.56838       56.36562
H         54.87136      111.61658       55.43622
H         56.37461      108.45994       54.60303
H         55.67527      109.53676       53.33342
H         56.71400      110.22537       54.63416
N         51.64765      109.72129       56.12277
C         50.63319      109.91397       57.16761
C         49.54593      108.83742       57.19537
O         48.71327      108.88337       58.09075
C         49.93965      111.28604       56.98497
C         50.93031      112.46232       57.08466
C         50.27942      113.82324       56.79253
C         49.22434      114.28268       57.81305
N         49.79244      114.44996       59.15211
H         51.73022      110.42431       55.37593
H         51.14766      109.91052       58.15444
H         49.16340      111.41132       57.76998
H         49.43772      111.30084       55.99096
H         51.73174      112.34488       56.33020
H         51.42081      112.46364       58.08007
H         49.81408      113.78591       55.78281
H         51.08370      114.58969       56.76195
H         48.36743      113.57667       57.84895
H         48.83192      115.26463       57.46715
H         50.06018      113.52445       59.55579
H         50.62790      115.07869       59.11523
H         49.07413      114.88404       59.77504
N         49.47237      107.85593       56.25675
C         48.42161      106.84547       56.20185
C         49.04485      105.49365       56.51964
O         48.60145      104.84457       57.45630
C         47.74908      106.90892       54.80772
C         47.10918      108.29962       54.56219
C         46.64406      108.52737       53.14667
O         47.42264      108.47660       52.21791
O         45.38138      108.86668       52.87796
H         50.17568      107.82764       55.51245
H         47.63175      107.03282       56.96339
H         46.98175      106.11403       54.69872
H         48.52909      106.72039       54.05572
H         47.85418      109.09379       54.76495
H         46.25817      108.43043       55.26452
N         50.12780      105.04498       55.82695
C         50.85692      103.83186       56.13170
H         51.90242      104.09943       56.40207
H         50.41136      103.26850       56.97614
H         50.88457      103.18143       55.23327
H         50.48933      105.60977       55.05970
Ca        44.85619      109.03438       50.69612
O         46.65553      111.63553       51.57183
H         46.95791      112.50499       51.20756
H         46.24317      111.86005       52.44336
O         47.17167      110.25990       48.85096
H         46.68317      110.50182       48.02541
H         47.94614      110.87503       48.86044

Ca 1.0



