%chk=holoCaM.loop3.water3.frame32.chk
%nprocshared=20
%mem=10GB
%nosave
#b3lyp/svp scf=(tight,noincore,xqc) Test 
#IOP(5/87=12) Density=Current Pop=(MK,readradii) iop(6/33=2) iop(6/42=6)

holoCaM.loop3.water3.frame32 

   0  1 
C         86.06232      103.61320       28.48277
C         86.76682      104.92043       28.27985
O         86.83738      105.71552       29.20671
H         85.21429      103.52930       27.77225
H         86.77398      102.77929       28.30254
H         85.67563      103.53082       29.52081
N         87.34799      105.19725       27.08114
C         88.10488      106.41785       26.84380
C         87.19102      107.63267       26.87416
O         86.22143      107.67357       26.12883
C         88.85417      106.33286       25.50857
C         89.86164      107.43891       25.35898
O         90.03258      108.37992       26.30703
O         90.57345      107.45699       24.37910
H         87.29283      104.48514       26.33529
H         88.88482      106.48387       27.63480
H         88.13839      106.33351       24.65703
H         89.42371      105.37778       25.48287
N         87.44401      108.65476       27.73740
C         86.55567      109.80132       27.90565
C         86.45518      110.63012       26.62978
O         85.36526      110.69199       26.07690
C         86.97915      110.66680       29.11911
C         86.96356      109.83957       30.42673
C         87.41463      110.60809       31.67443
C         86.45338      111.71377       32.11377
N         86.91166      112.30662       33.37140
H         88.28172      108.57619       28.32898
H         85.54064      109.40758       28.14284
H         86.26734      111.51369       29.21516
H         87.99418      111.08318       28.95318
H         87.66661      108.98800       30.33462
H         85.94968      109.41786       30.59985
H         88.41537      111.05149       31.50582
H         87.48848      109.86875       32.50298
H         85.43866      111.28359       32.26347
H         86.39736      112.50190       31.33290
H         86.25042      113.06249       33.65938
H         86.93704      111.57793       34.12252
H         87.86746      112.71511       33.25230
N         87.52830      111.29378       26.09647
C         87.41394      112.08736       24.86737
C         87.58701      111.24721       23.60192
O         87.44968      111.79980       22.51887
C         88.31949      113.34355       24.89263
C         89.79836      113.09019       24.84597
O         90.28756      111.84343       24.79306
O         90.57018      114.03546       24.84082
H         88.43938      111.23674       26.57512
H         86.38519      112.51180       24.82468
H         88.08949      113.93242       25.80687
H         88.06741      113.97423       24.01125
N         87.82359      109.90170       23.65084
C         87.83629      109.05671       22.46544
C         89.04666      109.20387       21.56219
O         89.04538      108.56067       20.52176
H         87.89276      109.42815       24.56100
H         86.90802      109.25270       21.88462
H         87.80773      107.99226       22.78158
N         90.12197      109.98734       21.87055
C         91.27335      110.12363       20.97420
C         92.06532      108.82099       20.75715
O         92.95751      108.83331       19.92081
C         92.22309      111.25437       21.45232
C         92.92122      110.99919       22.76861
N         93.82411      111.88773       23.23987
O         92.68768      109.99081       23.41104
H         90.10577      110.53086       22.74091
H         90.87516      110.44738       19.98645
H         91.64839      112.20275       21.53737
H         93.00622      111.40229       20.67782
H         94.04173      112.74751       22.71611
H         94.31720      111.70641       24.12661
N         91.82055      107.67952       21.47147
C         92.53125      106.41785       21.28180
C         93.36805      105.98107       22.48310
O         93.99509      104.93612       22.38469
H         91.08360      107.68704       22.17524
H         93.22762      106.48728       20.41853
H         91.78518      105.63013       21.04496
N         93.50458      106.75374       23.60085
C         94.49357      106.51094       24.65493
C         93.89144      106.63539       26.04858
O         93.21139      107.61477       26.30969
C         95.59001      107.58102       24.48644
C         96.31017      107.38550       23.17363
C         96.12555      108.28471       22.11037
C         97.16088      106.28055       22.99945
C         96.77597      108.07446       20.88998
C         97.81947      106.07988       21.78425
C         97.62621      106.97523       20.72301
O         98.24968      106.78885       19.54217
H         92.99896      107.64347       23.64434
H         94.97571      105.51369       24.55636
H         96.33509      107.53868       25.31083
H         95.10680      108.58284       24.51938
H         95.46476      109.13584       22.21784
H         97.31849      105.57754       23.80827
H         96.61690      108.76557       20.07204
H         98.47641      105.22680       21.66866
H         98.84709      106.04276       19.38846
N         94.18552      105.72357       27.02616
C         93.72663      105.84157       28.41277
C         94.91446      106.11296       29.33286
O         95.76818      105.25333       29.50144
C         92.92267      104.56468       28.82388
C         91.55444      104.58355       28.09212
C         92.72818      104.44367       30.35149
C         90.67336      103.36276       28.36040
H         94.80705      104.93354       26.79451
H         93.04542      106.71058       28.52248
H         93.50812      103.66930       28.51772
H         91.72815      104.64090       26.99658
H         90.98766      105.49030       28.40011
H         92.22580      103.49401       30.62008
H         93.70329      104.40574       30.87604
H         92.13296      105.28028       30.74790
H         91.19986      102.43379       28.05927
H         90.38170      103.29806       29.42866
H         89.73520      103.45411       27.77403
N         95.00328      107.31530       29.97775
C         96.01513      107.64988       30.97867
C         95.73447      106.92948       32.29348
O         94.73968      106.22514       32.39208
C         96.01172      109.17690       31.22092
O         94.75577      109.60113       31.68023
H         94.30852      108.03670       29.74593
H         97.02099      107.37621       30.59212
H         96.24292      109.68978       30.26086
H         96.79408      109.44765       31.96399
H         94.83143      110.57741       31.84109
N         96.56530      107.08064       33.36766
C         96.26998      106.48707       34.67049
C         95.10695      107.17908       35.38701
O         94.69851      106.67532       36.42436
C         97.50804      106.52480       35.57142
H         97.43695      107.61897       33.24905
H         96.01761      105.41412       34.51126
H         98.34772      105.99079       35.07782
H         97.81307      107.57295       35.77507
H         97.29832      106.01475       36.53684
N         94.51935      108.31807       34.90396
C         93.36462      108.96268       35.52701
C         92.11311      108.80177       34.67320
O         91.04677      109.20239       35.11978
C         93.66731      110.43635       35.79619
H         94.87373      108.74135       34.03809
H         93.13446      108.47767       36.50115
H         92.80527      110.91967       36.30488
H         94.55601      110.52469       36.45618
H         93.86795      110.97069       34.84323
N         92.15104      108.12900       33.48687
C         90.97110      107.66813       32.77846
C         90.77250      106.18012       33.05582
O         89.79655      105.62829       32.56684
C         91.12982      107.91573       31.26328
C         91.14106      109.39929       30.90805
C         91.26427      109.58039       29.42536
O         90.35662      110.08882       28.79212
O         92.37654      109.18497       28.78450
H         93.04452      107.77558       33.13226
H         90.05336      108.17916       33.14589
H         90.27705      107.44371       30.72464
H         92.07448      107.45548       30.90796
H         91.97738      109.92791       31.41007
H         90.18972      109.83658       31.25274
N         91.63469      105.46935       33.84973
C         91.46391      104.07036       34.17402
H         90.54852      103.63780       33.72247
H         92.34653      103.50225       33.81305
H         91.39816      103.96280       35.27788
H         92.46112      105.91554       34.26949
Ca        91.66113      109.92937       26.09983
O         94.75374      110.16779       26.75032
H         94.72628      110.66522       27.60558
H         95.70903      109.94097       26.62430
O         90.81210      112.76977       27.89426
H         91.70689      112.74367       28.31695
H         90.17891      112.68798       28.65073
O         93.59260      113.07791       26.37835
H         92.82958      112.78967       25.81733
H         94.16171      113.61176       25.76928

Ca 1.0



