%chk=holoCaM-CaMKII.loop3.water3.frame238.chk
%nprocshared=20
%mem=10GB
%nosave
#b3lyp/svp scf=(tight,noincore,xqc) Test 
#IOP(5/87=12) Density=Current Pop=(MK,readradii) iop(6/33=2) iop(6/42=6)

holoCaM-CaMKII.loop3.water3.frame238 

   0  1 
C         81.46251       13.79703       30.21675
C         81.35435       12.70686       29.19365
O         81.98582       11.67125       29.35375
H         81.84883       14.72169       29.74137
H         80.45826       13.99774       30.64733
H         82.14639       13.49973       31.04067
N         80.53256       12.86300       28.11800
C         80.32367       11.80722       27.13715
C         81.61616       11.54404       26.35829
O         82.11869       12.44585       25.70263
C         79.14665       12.16757       26.19421
C         78.63035       10.93600       25.50315
O         79.47431       10.14518       24.83531
O         77.48040       10.57129       25.67621
H         79.99369       13.73938       28.03826
H         80.01052       10.90131       27.70676
H         79.45145       12.95663       25.47538
H         78.30192       12.55995       26.80375
N         82.21395       10.32203       26.41836
C         83.48509        9.97245       25.77543
C         83.42221       10.11747       24.25604
O         84.26826       10.81173       23.71022
C         83.87820        8.54465       26.22372
C         85.25964        8.02917       25.79525
C         85.52245        6.68418       26.51139
C         86.86936        6.02764       26.17589
N         86.93110        5.57252       24.78717
H         81.75065        9.60695       26.99803
H         84.27774       10.65035       26.16703
H         83.13124        7.82141       25.85519
H         83.86149        8.55290       27.33761
H         86.04765        8.75329       26.09551
H         85.27589        7.90884       24.69200
H         84.70774        5.96111       26.28579
H         85.51354        6.87311       27.60862
H         86.98817        5.14118       26.83987
H         87.70619        6.72769       26.39130
H         87.83011        5.05940       24.63930
H         86.13869        4.91832       24.58954
H         86.89800        6.38348       24.13078
N         82.44386        9.51702       23.51235
C         82.37243        9.60298       22.04635
C         81.19376       10.43951       21.53439
O         80.97613       10.46643       20.33068
C         82.39642        8.18699       21.42243
C         81.20319        7.31564       21.71311
O         81.15413        6.19319       21.23715
O         80.18368        7.75009       22.47190
H         81.72012        8.98085       24.01050
H         83.27755       10.11084       21.64806
H         83.30991        7.66122       21.77455
H         82.47063        8.29067       20.31750
N         80.45643       11.22754       22.36616
C         79.41744       12.14157       21.90973
C         78.14301       11.51626       21.36731
O         77.30388       12.28425       20.91648
H         80.72856       11.28785       23.35123
H         79.85488       12.80086       21.13048
H         79.11014       12.78685       22.76183
N         77.88975       10.17369       21.37528
C         76.65086        9.61713       20.81892
C         75.38688       10.08257       21.54666
O         74.30547        9.82175       21.03771
C         76.71074        8.06941       20.73752
C         76.72239        7.34198       22.06518
N         76.10127        6.14491       22.19188
O         77.33729        7.79917       23.01490
H         78.60556        9.53709       21.74364
H         76.58703        9.98135       19.76856
H         77.63007        7.78477       20.18329
H         75.85297        7.69480       20.13543
H         75.60482        5.71661       21.39718
H         76.13396        5.62854       23.08322
N         75.43732       10.74608       22.74200
C         74.25834       11.20724       23.46399
C         73.99561       10.38840       24.71569
O         73.03618       10.68747       25.41244
H         76.34528       10.90571       23.19824
H         73.34569       11.12679       22.83370
H         74.39297       12.28100       23.71566
N         74.74492        9.28716       25.01107
C         74.42138        8.31617       26.05047
C         75.62579        8.06750       26.94039
O         76.71608        7.86398       26.42697
C         74.00819        7.01899       25.33725
C         72.76408        7.25998       24.51062
C         71.52382        7.45731       25.14107
C         72.83474        7.31941       23.10910
C         70.37538        7.70162       24.38182
C         71.68895        7.57654       22.35213
C         70.45344        7.76587       22.98674
O         69.33936        8.01315       22.26884
H         75.52840        9.03617       24.39407
H         73.56317        8.64677       26.67664
H         73.81683        6.19586       26.05875
H         74.85167        6.70615       24.68808
H         71.44601        7.41686       26.22040
H         73.77678        7.19070       22.60006
H         69.42457        7.84577       24.87923
H         71.76442        7.63245       21.27340
H         69.35260        8.07206       21.30279
N         75.48758        8.03920       28.29585
C         76.59656        7.87417       29.23422
C         76.44553        6.54058       29.97128
O         75.35827        6.22397       30.43325
C         76.64445        9.10694       30.17935
C         76.80471       10.40191       29.32807
C         77.79872        8.96570       31.19074
C         76.76643       11.69870       30.13476
H         74.54312        8.15583       28.69526
H         77.56912        7.85612       28.69461
H         75.68556        9.16074       30.74137
H         75.97025       10.47023       28.59752
H         77.75619       10.36263       28.75382
H         77.67941        8.04468       31.79770
H         78.77698        8.92243       30.66472
H         77.80895        9.81269       31.90487
H         75.81067       11.77277       30.69516
H         77.62040       11.76746       30.83694
H         76.83605       12.56144       29.43783
N         77.51947        5.70332       30.09062
C         77.48887        4.34290       30.62031
C         78.37283        4.21010       31.85297
O         78.92672        5.20030       32.30584
C         77.98257        3.37865       29.52167
O         79.35097        3.57986       29.26824
H         78.42890        6.04427       29.77493
H         76.45033        4.05466       30.89108
H         77.36768        3.51691       28.60211
H         77.84321        2.32148       29.82692
H         79.44968        3.82188       28.31332
N         78.55473        2.99444       32.44467
C         79.38680        2.78841       33.62498
C         80.84955        3.12773       33.37783
O         81.37231        3.98169       34.08015
C         79.28010        1.33458       34.10403
H         78.05786        2.18040       32.05227
H         78.99700        3.43251       34.44510
H         79.88551        1.18870       35.02419
H         78.22241        1.09065       34.33853
H         79.63821        0.62816       33.32479
N         81.58925        2.46983       32.43427
C         83.02541        2.69864       32.26633
C         83.34722        4.13064       31.89061
O         84.42712        4.59640       32.22856
C         83.62659        1.74470       31.23014
H         81.12717        1.75416       31.85270
H         83.51699        2.47934       33.24068
H         83.17428        1.91544       30.22998
H         84.72570        1.89800       31.15893
H         83.44412        0.69222       31.53490
N         82.46005        4.89258       31.19468
C         82.69456        6.30018       30.89522
C         82.76978        7.07113       32.20011
O         83.78994        7.69215       32.46536
C         81.59050        6.83275       29.95475
C         81.71994        6.15235       28.57388
C         80.65170        6.56450       27.61164
O         79.48464        6.29606       27.80532
O         80.97475        7.23716       26.51057
H         81.57554        4.46007       30.88791
H         83.66454        6.41784       30.35932
H         81.70845        7.93121       29.81714
H         80.59289        6.64612       30.40510
H         81.68656        5.04866       28.65916
H         82.70749        6.43439       28.14840
N         81.74672        7.02221       33.09486
C         81.82158        7.65215       34.39453
H         81.95422        8.74802       34.28493
H         80.88799        7.45442       34.96382
H         82.67421        7.22762       34.96826
H         80.90074        6.48839       32.86402
Ca        79.33849        7.97385       25.21014
O         81.30437        5.20377       24.72913
H         81.36271        4.50870       25.43201
H         82.01591        4.97343       24.08216
O         77.36641        5.06241       25.92626
H         78.03522        4.37926       26.18323
H         76.64676        4.97507       26.60047
O         78.83559        4.83868       23.34471
H         78.45599        3.95665       23.10588
H         78.87320        5.33198       22.48824

Ca 1.0



