%chk=holoCaM-CaMKII.loop1.water2.frame427.chk
%nprocshared=20
%mem=10GB
%nosave
#b3lyp/svp scf=(tight,noincore,xqc) Test 
#IOP(5/87=12) Density=Current Pop=(MK,readradii) iop(6/33=2) iop(6/42=6)

holoCaM-CaMKII.loop1.water2.frame427 

   0  1 
C         78.88817       58.28213       30.91483
C         79.92499       57.82694       29.92945
O         80.42699       56.72595       30.07570
H         78.02971       57.57773       30.89542
H         79.32244       58.30434       31.93476
H         78.50962       59.29704       30.66856
N         80.26408       58.61950       28.87639
C         81.20280       58.24652       27.82002
C         82.63658       58.16464       28.35012
O         83.36133       59.14774       28.26278
C         81.08938       59.30479       26.69570
C         81.85092       58.98387       25.44838
O         82.49308       57.81180       25.29475
O         81.86054       59.79993       24.54430
H         79.77556       59.52534       28.79369
H         80.89141       57.27150       27.38233
H         81.43386       60.28804       27.08554
H         80.02411       59.40865       26.39548
N         83.11400       57.02853       28.93416
C         84.46160       56.94434       29.48567
C         85.52155       57.05390       28.38890
O         86.30436       57.99277       28.44325
C         84.64406       55.66619       30.34132
C         83.71105       55.58125       31.58053
C         83.88573       56.76563       32.55632
C         83.16458       56.58449       33.90551
N         81.71018       56.49549       33.77053
H         82.49450       56.21309       29.01850
H         84.61384       57.80328       30.17243
H         85.69245       55.63813       30.71191
H         84.48269       54.76336       29.71283
H         83.96813       54.64219       32.11788
H         82.65018       55.51008       31.26327
H         83.52395       57.70549       32.08849
H         84.96792       56.87682       32.78331
H         83.40844       57.46405       34.54370
H         83.55016       55.67713       34.42015
H         81.28851       56.43564       34.72629
H         81.33783       57.34815       33.29371
H         81.44040       55.63746       33.23988
N         85.62821       56.14183       27.37241
C         86.68291       56.22771       26.34719
C         86.52627       57.42534       25.38979
O         87.40184       57.61439       24.55740
C         86.83336       54.88037       25.58698
C         85.67363       54.51635       24.71096
O         84.71031       55.41238       24.47315
O         85.58861       53.39482       24.23744
H         84.98604       55.33425       27.37076
H         87.64877       56.34827       26.88691
H         86.95009       54.08495       26.35661
H         87.75091       54.87951       24.96076
N         85.47095       58.29365       25.46886
C         85.35441       59.51748       24.67977
C         85.02329       59.35541       23.19984
O         84.96999       60.37365       22.52481
H         84.75953       58.15065       26.19339
H         86.29973       60.09250       24.78681
H         84.54503       60.14094       25.11609
N         84.79772       58.14677       22.61141
C         84.58735       57.98196       21.16956
C         83.30662       58.60988       20.60618
O         83.20571       58.68488       19.38948
C         84.67976       56.49063       20.76587
C         83.64747       55.58494       21.38914
O         82.74211       56.04865       22.26867
O         83.64985       54.39787       21.10901
H         84.86581       57.31128       23.19239
H         85.43802       58.49447       20.66803
H         85.68099       56.10857       21.06015
H         84.59590       56.41129       19.66056
N         82.29225       59.06413       21.39567
C         81.09601       59.72448       20.87615
C         79.81492       58.95629       21.13644
O         78.75874       59.48317       20.81241
H         82.36599       58.94361       22.40947
H         81.15914       59.88832       19.77824
H         81.01957       60.72282       21.35665
N         79.81885       57.69703       21.65781
C         78.61540       56.89805       21.86190
C         78.51763       56.38123       23.29049
O         79.50943       56.34322       24.00789
C         78.60404       55.70893       20.85682
C         78.25323       56.18994       19.44701
O         79.85522       55.06841       20.80323
H         80.71709       57.25385       21.87410
H         77.70231       57.51144       21.69349
H         77.81986       54.96776       21.12999
H         80.08515       54.78553       21.72280
H         77.23150       56.62732       19.44298
H         78.97612       56.95145       19.08729
H         78.26114       55.33069       18.74204
N         77.30905       55.94719       23.74972
C         77.07055       55.34776       25.05814
C         76.54542       53.94178       24.81811
O         75.57982       53.78130       24.08192
C         76.05456       56.19151       25.89267
C         76.61290       57.61753       26.14872
C         75.74295       55.48844       27.23553
C         75.63498       58.54181       26.88375
H         76.49509       56.03190       23.11927
H         78.01022       55.29433       25.65077
H         75.10666       56.27413       25.31607
H         76.84236       58.09798       25.17446
H         77.55691       57.55670       26.73550
H         75.33817       54.46981       27.07098
H         76.65738       55.41406       27.85996
H         74.96517       56.02801       27.81022
H         75.41376       58.17976       27.90821
H         76.08511       59.55150       26.98617
H         74.68684       58.63183       26.31262
N         77.10968       52.87972       25.45301
C         76.65944       51.50401       25.30287
C         75.91542       51.06925       26.55318
O         75.82805       51.83006       27.50783
C         77.87541       50.56349       25.04870
C         78.65543       50.91576       23.77670
O         78.73146       50.53427       26.16642
H         77.85422       53.05972       26.13074
H         75.94857       51.41987       24.45159
H         77.50902       49.52636       24.90188
H         79.37625       51.28478       26.10450
H         78.00013       50.84083       22.88558
H         79.06148       51.94529       23.84702
H         79.50477       50.20710       23.65727
N         75.36025       49.82902       26.61461
C         74.73344       49.28102       27.81723
C         75.73314       49.24698       28.95979
O         75.36909       49.56158       30.08308
C         74.19123       47.85685       27.55866
C         73.01924       47.88186       26.56861
O         75.22122       47.03123       27.07539
H         75.43043       49.23213       25.77676
H         73.87297       49.91856       28.12389
H         73.81109       47.45591       28.52720
H         74.89528       46.09599       27.13398
H         72.19859       48.51356       26.97163
H         73.32660       48.28286       25.58097
H         72.62631       46.85380       26.42519
N         77.03393       48.93005       28.71591
C         78.09135       48.96129       29.72031
C         78.15921       50.33803       30.37322
O         78.08112       50.43404       31.58972
C         79.42615       48.59595       29.01719
C         80.64343       48.46525       29.94384
C         81.89628       47.97521       29.18326
C         82.43270       48.98117       28.14551
N         83.61064       48.44656       27.45990
H         77.29267       48.69034       27.74620
H         77.88056       48.19333       30.49683
H         79.63692       49.35278       28.23800
H         79.28418       47.61351       28.51431
H         80.40279       47.70641       30.71948
H         80.86058       49.43004       30.45040
H         81.66206       47.01108       28.67963
H         82.70101       47.78441       29.92582
H         82.70536       49.92838       28.66133
H         81.66221       49.20948       27.38008
H         83.35437       47.58077       26.93114
H         83.96677       49.15878       26.78169
H         84.36660       48.22729       28.14834
N         78.31078       51.44818       29.60346
C         78.48548       52.80254       30.13201
C         77.22502       53.40432       30.73468
O         77.32642       54.47409       31.32132
C         78.96628       53.71726       28.99386
C         80.33186       53.24523       28.48692
C         80.73778       53.93147       27.23547
O         81.88919       54.59205       27.20719
O         80.10401       53.79375       26.20429
H         78.36589       51.30318       28.58582
H         79.27297       52.77640       30.91850
H         79.05147       54.77277       29.32271
H         78.20916       53.67842       28.18846
H         80.33865       52.16400       28.24799
H         81.08963       53.41759       29.28235
N         76.00280       52.82215       30.60693
C         74.80795       53.42354       31.15855
H         73.92130       52.80279       30.91010
H         74.89639       53.49730       32.26307
H         74.66006       54.43862       30.73007
H         75.90164       51.94692       30.08386
Ca        82.70340       54.95581       25.19664
O         81.15308       52.68012       22.58825
H         80.79558       52.21051       21.79293
H         82.13156       52.70138       22.44958
O         82.60503       51.86175       25.30445
H         82.11921       51.13546       24.83914
H         83.56194       51.63689       25.18727

Ca 1.0



