%chk=holoCaM.loop4.water3.frame85.chk
%nprocshared=20
%mem=10GB
%nosave
#b3lyp/svp scf=(tight,noincore,xqc) Test 
#IOP(5/87=12) Density=Current Pop=(MK,readradii) iop(6/33=2) iop(6/42=6)

holoCaM.loop4.water3.frame85 

   -3  1 
C          1.50986       10.28438      130.17498
C          0.67097        9.82655      129.01864
O          1.23921        9.48101      127.99434
H          2.11631       11.16429      129.87694
H          0.88416       10.55448      131.05051
H          2.19396        9.46097      130.47546
N         -0.68900        9.76220      129.12224
C         -1.54631        9.22299      128.07424
C         -2.62390       10.21922      127.66331
O         -3.43120       10.61193      128.49361
C         -2.18619        7.92606      128.59404
C         -3.04757        7.27596      127.55598
O         -2.57001        6.93775      126.48487
O         -4.35373        7.06766      127.80546
H         -1.13307       10.04713      130.00850
H         -0.93865        8.95456      127.18168
H         -2.79508        8.14285      129.49845
H         -1.38691        7.21164      128.88335
N         -2.70283       10.63614      126.36780
C         -3.73339       11.51226      125.82398
C         -4.49256       10.84540      124.65745
O         -5.42132       11.46664      124.16081
C         -3.11058       12.89463      125.42339
C         -2.00793       12.77578      124.33333
C         -2.57030       13.59538      126.68703
C         -1.43570       14.12070      123.86858
H         -1.99184       10.30635      125.72012
H         -4.49882       11.71807      126.60379
H         -3.93027       13.52991      125.02049
H         -2.43275       12.26700      123.44209
H         -1.15898       12.17728      124.71269
H         -3.37178       13.67795      127.45101
H         -1.71858       13.03019      127.12268
H         -2.23514       14.62887      126.46805
H         -2.24040       14.77248      123.46954
H         -0.90847       14.64615      124.69132
H         -0.68690       13.94695      123.06620
N         -4.16206        9.60590      124.16287
C         -4.84519        8.95288      123.03290
C         -5.35455        7.53658      123.34270
O         -5.97357        6.94322      122.47000
C         -3.90789        8.93372      121.80446
C         -2.60930        8.19669      122.00531
O         -2.35146        7.53051      123.14743
O         -1.75180        8.25852      121.14015
H         -3.36084        9.11492      124.57076
H         -5.73362        9.55222      122.73671
H         -3.65671        9.99158      121.56971
H         -4.43384        8.50879      120.92183
N         -5.15629        6.93615      124.55086
C         -5.68434        5.62522      124.91846
C         -5.08182        4.40855      124.22149
O         -5.51020        3.31343      124.55874
H         -4.67818        7.46216      125.28816
H         -6.78493        5.62680      124.76351
H         -5.50313        5.47469      126.00405
N         -4.11698        4.48117      123.25769
C         -3.59895        3.29163      122.56635
C         -2.68965        2.38790      123.41792
O         -2.22636        1.38527      122.89089
C         -2.90835        3.68555      121.24117
C         -1.68126        4.53654      121.37260
O         -1.22906        4.93677      122.57351
O         -1.08934        4.87778      120.36308
H         -3.80146        5.40778      122.94617
H         -4.47052        2.67754      122.24558
H         -3.64195        4.23783      120.61446
H         -2.62825        2.75908      120.69310
N         -2.41704        2.63649      124.73198
C         -1.62582        1.73940      125.57093
C         -0.11683        1.83416      125.38808
O          0.57936        1.14685      126.12251
H         -2.86030        3.43911      125.19529
H         -1.97623        0.69189      125.44005
H         -1.81419        2.00895      126.63219
N          0.46951        2.66003      124.47317
C          1.91942        2.82115      124.33144
C          2.32722        4.29379      124.41478
O          1.46469        5.15319      124.51937
C          2.39249        2.16311      123.01443
C          1.71290        2.71979      121.75001
C          2.18919        2.05078      120.48263
N          1.64763        2.40468      119.29497
O          3.05409        1.18668      120.51609
H         -0.13237        3.19921      123.84338
H          2.44898        2.29358      125.15512
H          2.17168        1.07453      123.07753
H          3.49417        2.27509      122.92075
H          1.90931        3.80838      121.66983
H          0.61822        2.55188      121.81745
H          0.91172        3.12438      119.24740
H          1.95818        1.95299      118.42203
N          3.64639        4.64870      124.37227
C          4.14222        6.02672      124.39003
C          4.87042        6.29635      123.08400
O          5.75871        5.53737      122.71987
C          5.04809        6.27247      125.62797
C          5.74642        7.64627      125.56551
C          4.20707        6.21336      126.91329
H          4.35168        3.89860      124.30763
H          3.30505        6.74764      124.46295
H          5.83759        5.49041      125.66954
H          6.42531        7.70474      124.68882
H          5.00292        8.46981      125.49500
H          6.36978        7.80300      126.47181
H          3.44632        7.02347      126.90467
H          3.68893        5.23722      127.01037
H          4.84950        6.35964      127.80713
N          4.52948        7.38371      122.33302
C          5.08723        7.68536      121.01963
C          5.85298        9.00227      121.02070
O          6.00911        9.61134      122.06771
C          3.96545        7.64885      119.94459
C          3.02772        8.84555      119.86299
N          2.19501        9.20919      120.86730
O          3.00469        9.48774      118.82382
H          3.83071        8.02456      122.71914
H          5.80717        6.88834      120.73178
H          3.39088        6.71000      120.06276
H          4.46104        7.56931      118.95293
H          2.13390        8.69288      121.74848
H          1.57140       10.02183      120.75243
N          6.37753        9.48257      119.85891
C          7.11388       10.74024      119.72159
C          6.28544       11.95795      120.12268
O          6.80780       12.80798      120.83041
C          7.70679       10.85664      118.29191
C          6.70006       10.82340      117.16124
C          5.96798       11.96810      116.80837
C          6.50519        9.63750      116.42889
C          5.04971       11.92133      115.75280
C          5.57374        9.58862      115.38932
C          4.84046       10.72764      115.04889
O          3.94040       10.66330      114.04713
H          6.25316        8.90462      119.01755
H          8.00125       10.70648      120.39346
H          8.38402        9.98070      118.18018
H          8.35409       11.75475      118.18998
H          6.11166       12.89816      117.34356
H          7.06161        8.74137      116.67411
H          4.49214       12.81128      115.48996
H          5.42183        8.66259      114.84913
H          3.40209       11.42496      113.78885
N          4.98087       12.09704      119.74359
C          4.15364       13.25496      120.10935
C          3.91646       13.37716      121.61621
O          3.28172       14.34073      122.02512
C          2.74366       13.16759      119.45850
C          2.75916       13.07584      117.93079
C          1.36422       13.06607      117.37506
O          0.50542       12.08608      117.71754
O          1.00712       13.93620      116.59726
H          4.57493       11.35072      119.16833
H          4.66245       14.17335      119.74302
H          2.16720       14.07963      119.73378
H          2.20392       12.28273      119.86519
H          3.23930       12.13354      117.61611
H          3.32402       13.93867      117.51628
N          4.29541       12.39579      122.48180
C          3.83400       12.30616      123.85752
C          4.95965       12.19056      124.87619
O          4.65639       12.15888      126.06080
C          2.92987       11.06793      123.87212
C          2.13908       10.82640      125.14490
C          1.17303        9.73159      124.84596
O          1.56492        8.47821      124.56970
O         -0.00347       10.00112      124.74841
H          4.79613       11.58350      122.12333
H          3.22767       13.20100      124.12115
H          3.52826       10.16288      123.62926
H          2.18601       11.22183      123.05404
H          1.57306       11.75465      125.38475
H          2.77416       10.55292      126.01077
N          6.27232       12.12141      124.51223
C          7.35065       11.98472      125.47264
H          8.04948       12.83959      125.36726
H          6.98951       11.95841      126.52303
H          7.89863       11.03980      125.27517
H          6.53878       12.15023      123.51941
Ca        -0.22518        7.34326      123.83385
O         -1.02988        4.62742      126.53844
H         -0.21542        4.17260      126.86763
H         -1.70109        4.47801      127.25055
O          0.65810        6.57422      127.38374
H          1.11022        7.15445      126.72476
H          1.25324        6.56482      128.17362
O          1.14913        6.32229      121.29895
H          1.18183        6.11061      120.33320
H          0.49697        7.06232      121.35361

Ca 1.0



