%chk=holoCaM-CaMKII.loop4.water2.frame118.chk
%nprocshared=20
%mem=10GB
%nosave
#b3lyp/svp scf=(tight,noincore,xqc) Test 
#IOP(5/87=12) Density=Current Pop=(MK,readradii) iop(6/33=2) iop(6/42=6)

holoCaM-CaMKII.loop4.water2.frame118 

   -3  1 
C         50.71351       31.30446       62.56795
C         51.43988       30.41625       63.53750
O         52.16166       30.92195       64.38410
H         50.04728       31.99491       63.12677
H         51.44313       31.89337       61.97608
H         50.08600       30.71317       61.86638
N         51.26802       29.06887       63.48722
C         51.87934       28.14409       64.43441
C         53.39339       28.10453       64.26734
O         53.85645       28.06566       63.13556
C         51.29155       26.74179       64.21591
C         51.49044       25.83131       65.38716
O         51.02674       24.70832       65.33339
O         52.03217       26.26040       66.54499
H         50.62688       28.69044       62.77157
H         51.58922       28.46985       65.45908
H         51.69435       26.29241       63.28180
H         50.18666       26.82455       64.11140
N         54.22133       28.06255       65.35238
C         55.68292       28.09470       65.26262
C         56.32538       26.74704       65.60894
O         57.45762       26.54483       65.19106
C         56.22829       29.25484       66.16070
C         55.60275       30.60586       65.72148
C         57.76915       29.32892       66.15994
C         55.95687       31.77990       66.63614
H         53.79270       28.02969       66.28308
H         55.97678       28.29281       64.20776
H         55.91187       29.05223       67.20690
H         54.49652       30.51995       65.74800
H         55.90693       30.84555       64.67963
H         58.21336       28.39455       66.55694
H         58.15388       29.51708       65.13612
H         58.13483       30.12138       66.84124
H         55.65445       31.55358       67.67895
H         57.03964       32.01144       66.60896
H         55.41425       32.68714       66.29694
N         55.69951       25.78030       66.34442
C         56.33252       24.49575       66.66853
C         55.57620       23.29923       66.08575
O         56.03335       22.17871       66.26455
C         56.57986       24.38837       68.18666
C         55.34907       24.57041       69.01658
O         54.40190       23.81915       68.88350
O         55.29544       25.56061       69.92714
H         54.75396       25.95746       66.71091
H         57.34323       24.43010       66.21000
H         57.30879       25.17680       68.47726
H         57.04132       23.40469       68.42224
N         54.47876       23.46083       65.29540
C         53.86264       22.38499       64.53531
C         53.13885       21.33400       65.34818
O         53.35974       20.15265       65.12515
H         54.11194       24.40655       65.12026
H         54.61853       21.91526       63.86819
H         53.09018       22.84189       63.87821
N         52.16505       21.70421       66.21951
C         51.16297       20.79791       66.78131
C         49.76634       21.24610       66.32202
O         48.77894       20.76993       66.86437
C         51.29614       20.67721       68.32265
C         51.44606       21.99627       69.00780
O         50.56440       22.97560       68.78459
O         52.45168       22.23052       69.65521
H         52.05430       22.70898       66.41739
H         51.28257       19.75938       66.40139
H         52.20913       20.08133       68.54532
H         50.42886       20.11989       68.73579
N         49.61138       22.08284       65.24830
C         48.32835       22.47537       64.68680
C         47.53812       23.48323       65.50099
O         46.47690       23.86400       65.02820
H         50.43934       22.39007       64.72073
H         47.71796       21.56853       64.48856
H         48.51998       22.96700       63.70640
N         47.97112       23.98522       66.69533
C         47.23274       25.00215       67.44929
C         48.08443       26.24152       67.65291
O         49.25571       26.22262       67.31289
C         46.79267       24.43016       68.80776
C         45.76750       23.29764       68.63403
C         45.28071       22.73374       69.94697
N         44.32315       21.77857       69.95084
O         45.73584       23.13498       71.00884
H         48.85922       23.65167       67.08914
H         46.32916       25.32864       66.88973
H         46.31172       25.23336       69.40727
H         47.68452       24.06147       69.36222
H         46.20760       22.47041       68.03636
H         44.88869       23.70328       68.08703
H         43.92020       21.43578       69.06628
H         43.97546       21.38845       70.83926
N         47.53798       27.38681       68.16310
C         48.30893       28.61269       68.35284
C         48.15454       29.09980       69.78753
O         47.07102       29.51911       70.17032
C         47.86479       29.69008       67.32255
C         48.64168       31.00544       67.50052
C         48.07319       29.18342       65.88416
H         46.52978       27.40506       68.37984
H         49.38659       28.41603       68.16426
H         46.78164       29.90415       67.46115
H         48.30620       31.75313       66.75041
H         48.45361       31.44000       68.50174
H         49.73337       30.83961       67.37630
H         49.14551       28.95916       65.70094
H         47.48122       28.26372       65.69590
H         47.74210       29.95012       65.15187
N         49.21859       29.06353       70.63901
C         49.19120       29.57546       72.01063
C         49.16773       31.10817       71.97003
O         49.36073       31.66015       70.90033
C         50.44965       29.01143       72.73566
C         50.52887       29.17643       74.23631
N         50.54522       28.09073       75.04622
O         50.62938       30.28388       74.73166
H         50.08551       28.63119       70.29791
H         48.28456       29.16987       72.51135
H         51.36686       29.43649       72.27507
H         50.46285       27.91736       72.53399
H         50.48772       27.13636       74.66220
H         50.62616       28.20379       76.06766
N         48.93692       31.87281       73.07472
C         49.03224       33.33754       73.05703
C         50.45604       33.77248       72.74611
O         50.65586       34.58883       71.85833
C         48.61068       33.92867       74.42061
C         48.74184       35.44039       74.45246
C         48.01638       36.24784       73.55712
C         49.60415       36.05518       75.37765
C         48.15543       37.63966       73.58573
C         49.73833       37.44693       75.40648
C         49.01421       38.24415       74.50915
O         49.13493       39.58731       74.52510
H         48.68713       31.40251       73.95560
H         48.33982       33.74454       72.28717
H         49.23940       33.47830       75.22011
H         47.55434       33.65402       74.62729
H         47.34589       35.80371       72.83314
H         50.17660       35.45886       76.07691
H         47.59469       38.24968       72.88835
H         50.40663       37.90410       76.12552
H         49.71546       40.04522       75.14992
N         51.49175       33.23796       73.44965
C         52.90127       33.56688       73.26201
C         53.27595       33.51698       71.79163
O         53.83247       34.48440       71.29058
C         53.75146       32.58756       74.10868
C         55.24398       32.94303       74.16195
C         56.01947       31.99540       75.04444
O         55.41479       30.95943       75.66185
O         57.21566       32.17058       75.20986
H         51.25735       32.52585       74.15207
H         53.07873       34.59917       73.63839
H         53.62198       31.55203       73.71999
H         53.37121       32.61657       75.15446
H         55.35294       33.96920       74.57519
H         55.67961       32.91666       73.14105
N         52.93830       32.44274       71.02568
C         53.21381       32.36992       69.59279
C         52.52786       33.51610       68.86233
O         53.20676       34.29434       68.20676
C         52.77997       31.00505       69.00372
C         53.52766       29.84135       69.68257
C         53.23358       28.51840       69.04394
O         54.15045       27.82262       68.64507
O         51.97244       28.06723       68.94291
H         52.43954       31.66701       71.48425
H         54.31137       32.45876       69.43680
H         53.02050       31.00188       67.91724
H         51.68242       30.85932       69.11797
H         53.23630       29.76830       70.74776
H         54.62309       30.02559       69.63344
N         51.18439       33.70143       68.96343
C         50.49242       34.80495       68.33389
H         49.41168       34.76873       68.59332
H         50.90488       35.77038       68.69817
H         50.59712       34.74350       67.23109
H         50.63327       33.05195       69.53053
Ca        51.59953       24.89034       68.26558
O         49.68201       25.25604       70.97666
H         49.20578       25.34391       71.83996
H         50.09348       24.35641       71.01439
O         52.64607       26.00672       71.32555
H         53.03938       26.62099       71.99509
H         53.10628       25.14329       71.47824

Ca 1.0



