%chk=holoCaM-CaMKII.loop1.water2.frame177.chk
%nprocshared=20
%mem=10GB
%nosave
#b3lyp/svp scf=(tight,noincore,xqc) Test 
#IOP(5/87=12) Density=Current Pop=(MK,readradii) iop(6/33=2) iop(6/42=6)

holoCaM-CaMKII.loop1.water2.frame177 

   0  1 
C        101.13549       63.81645       21.34199
C        102.05450       64.90421       21.80570
O        102.47233       64.88716       22.95423
H        100.17413       64.25658       21.00637
H        101.60688       63.27348       20.49523
H        100.93731       63.09290       22.16136
N        102.45250       65.87317       20.93852
C        103.39957       66.90815       21.32097
C        102.75060       67.92735       22.24399
O        101.84100       68.62369       21.81281
C        103.94708       67.60280       20.06855
C        105.06263       68.55466       20.37009
O        105.53753       68.72610       21.61960
O        105.56358       69.16848       19.45212
H        102.12785       65.81808       19.96009
H        104.25689       66.40678       21.80973
H        103.12595       68.14684       19.55146
H        104.34834       66.83393       19.37261
N        103.16397       68.06313       23.53456
C        102.55849       69.01468       24.45560
C        103.09889       70.42059       24.22962
O        102.31418       71.29041       23.87576
C        102.72592       68.55055       25.91482
C        102.11282       67.16425       26.25831
C        100.58960       67.02430       26.02893
C        100.20101       66.57804       24.60295
N         98.75011       66.53643       24.43619
H        103.87734       67.41513       23.89113
H        101.46665       69.06909       24.28375
H        102.24481       69.30661       26.57392
H        103.80619       68.51656       26.17640
H        102.28700       67.04868       27.35087
H        102.64638       66.32669       25.75951
H        100.08382       67.96697       26.32874
H        100.21711       66.21524       26.69531
H        100.61389       65.56289       24.43016
H        100.60707       67.22972       23.81814
H         98.35337       67.49624       24.56137
H         98.52928       66.20758       23.46766
H         98.32115       65.87867       25.12567
N        104.41204       70.73711       24.44533
C        104.91410       72.11066       24.31832
C        104.93282       72.65110       22.88099
O        105.23677       73.82458       22.71584
C        106.29309       72.27531       25.00150
C        107.42804       71.49471       24.39652
O        108.65856       71.61276       24.93081
O        107.25754       70.75922       23.43810
H        105.04403       69.99970       24.79174
H        104.22808       72.76327       24.90500
H        106.19688       71.97519       26.06826
H        106.57019       73.35226       24.98404
N        104.58483       71.89026       21.80210
C        104.45303       72.42568       20.45078
C        105.74379       72.79670       19.72998
O        105.64114       73.24067       18.59505
H        104.30139       70.91297       21.94390
H        103.77370       73.30413       20.48064
H        103.96359       71.65005       19.82117
N        106.98367       72.61189       20.26974
C        108.24026       72.88539       19.54602
C        108.49192       71.93959       18.34239
O        109.51622       72.08089       17.68977
C        109.43207       72.82813       20.54230
C        109.60456       71.47349       21.17020
O        110.45366       71.28141       22.02417
O        108.81303       70.47382       20.75853
H        107.03963       72.27287       21.23916
H        108.20479       73.92965       19.16525
H        109.24290       73.56732       21.35048
H        110.37514       73.11376       20.02783
N        107.59741       70.97402       17.98508
C        107.71934       70.06485       16.85515
C        108.69745       68.92515       17.06388
O        109.46462       68.65592       16.15761
H        106.72310       70.90378       18.50087
H        107.91211       70.62524       15.91389
H        106.73417       69.56299       16.72987
N        108.61924       68.14214       18.18246
C        109.34927       66.87938       18.42270
C        108.87304       66.15948       19.74350
O        107.67243       66.64484       20.26054
C        110.90181       67.03298       18.54651
C        111.71698       67.17553       17.25168
O        111.23390       68.05157       19.45348
H        107.92045       68.44323       18.86952
H        109.10832       66.18902       17.58365
H        111.28406       66.07308       18.95917
H        111.02635       68.91779       19.01264
H        111.59519       68.15059       16.75497
H        112.79841       67.10385       17.49804
H        111.47118       66.34781       16.55194
N        108.78468       64.70297       19.56360
C        108.22147       63.95262       20.71195
C        109.31297       63.49320       21.67013
O        110.28144       62.89072       21.22755
C        107.38244       62.74981       20.19219
C        106.28754       63.25404       19.20991
C        106.73633       62.00135       21.38147
C        105.46229       62.13404       18.57360
H        109.67541       64.28670       19.20658
H        107.49098       64.57056       21.27114
H        108.05574       62.05148       19.64802
H        106.77128       63.80188       18.37332
H        105.60087       63.95907       19.72993
H        106.16611       61.11364       21.04777
H        107.50938       61.62101       22.07657
H        106.05367       62.67630       21.94420
H        106.12799       61.42544       18.03706
H        104.86570       61.58452       19.32855
H        104.74885       62.57289       17.84472
N        109.15515       63.65552       23.01711
C        110.09188       63.13002       24.01043
C        109.46395       61.96388       24.75571
O        108.29124       61.69099       24.56597
C        110.50669       64.23680       25.01724
C        111.27761       65.38198       24.35500
O        109.38957       64.73085       25.71576
H        108.28666       64.09436       23.35581
H        111.00055       62.73145       23.50949
H        111.19383       63.79772       25.77174
H        108.91222       65.37364       25.12978
H        111.55601       66.13202       25.12691
H        112.20447       64.99501       23.88428
H        110.65351       65.87920       23.58356
N        110.20637       61.20953       25.61321
C        109.64608       60.12784       26.42659
C        108.67440       60.69537       27.44817
O        107.59553       60.14612       27.61692
C        110.75331       59.31919       27.14154
C        111.64750       58.58878       26.13005
O        111.52972       60.15963       27.95587
H        111.21078       61.42706       25.69959
H        109.10603       59.40111       25.77646
H        110.24729       58.54587       27.76816
H        111.98146       59.57625       28.62019
H        112.18032       59.30429       25.47039
H        112.40099       57.97469       26.66596
H        111.03429       57.91006       25.49822
N        108.98027       61.85134       28.10588
C        108.08563       62.55139       29.02905
C        106.69860       62.69517       28.42852
O        105.73310       62.28437       29.05770
C        108.67672       63.94899       29.34771
C        109.89672       63.85507       30.28010
C        110.60901       65.20928       30.42630
C        111.62098       65.23403       31.58811
N        112.64220       64.18991       31.48947
H        109.87703       62.30167       27.86830
H        107.97511       61.97545       29.97473
H        107.92031       64.58148       29.86282
H        108.94463       64.45394       28.39255
H        110.63387       63.11857       29.89717
H        109.52852       63.50914       31.27025
H        109.86427       66.00768       30.63436
H        111.11651       65.45363       29.46586
H        111.07262       65.11512       32.54867
H        112.11515       66.23123       31.60069
H        113.16002       64.26661       30.58510
H        113.31638       64.30555       32.28081
H        112.20749       63.24365       31.57925
N        106.53294       63.23703       27.19608
C        105.23538       63.37729       26.54135
C        104.58244       62.01619       26.34552
O        103.48351       61.81218       26.84266
C        105.41616       64.11604       25.19991
C        105.87366       65.57110       25.44698
C        106.23508       66.31162       24.19350
O        106.20788       65.76445       23.10486
O        106.61084       67.60081       24.27642
H        107.38020       63.54409       26.69869
H        104.56217       63.99633       27.17704
H        104.45512       64.14240       24.64210
H        106.16280       63.56899       24.58349
H        106.76627       65.60269       26.10072
H        105.05827       66.11468       25.96868
N        105.20961       61.02704       25.65479
C        104.63642       59.71057       25.47782
H        103.68320       59.78181       24.91376
H        105.34077       59.06610       24.90809
H        104.45304       59.23904       26.46691
H        106.13369       61.20375       25.25427
Ca       108.51319       68.38318       21.41111
O        111.71639       68.24653       22.73718
H        111.20569       67.87054       21.97837
H        111.13782       68.96840       23.08724
O        109.44125       68.32613       25.09068
H        110.07816       68.47398       25.83366
H        108.69684       68.95024       25.27748

Ca 1.0



