%chk=holoCaM-CaMKII.loop3.water2.frame2.chk
%nprocshared=20
%mem=10GB
%nosave
#b3lyp/svp scf=(tight,noincore,xqc) Test 
#IOP(5/87=12) Density=Current Pop=(MK,readradii) iop(6/33=2) iop(6/42=6)

holoCaM-CaMKII.loop3.water2.frame2 

   0  1 
C         79.91596       46.98221       62.34849
C         80.29622       46.26739       63.60804
O         81.30961       46.59785       64.20655
H         78.91439       47.44431       62.46987
H         80.65656       47.77164       62.10190
H         79.88077       46.25192       61.51142
N         79.52321       45.24087       64.05160
C         79.83882       44.43555       65.21852
C         80.18164       43.05291       64.70276
O         79.29514       42.27019       64.38999
C         78.65996       44.50322       66.20217
C         78.84389       43.64426       67.40962
O         77.89869       42.74032       67.71523
O         79.81524       43.78171       68.13509
H         78.68858       44.98145       63.50149
H         80.73345       44.83660       65.74657
H         77.72015       44.20107       65.69059
H         78.54580       45.55573       66.54003
N         81.48010       42.80158       64.37476
C         81.91938       41.64749       63.59788
C         81.81151       40.37877       64.42158
O         81.01171       39.51704       64.08414
C         83.35978       41.88149       63.06748
C         83.42072       43.12645       62.14851
C         84.83577       43.51245       61.69841
C         85.50051       42.46054       60.80400
N         86.79786       42.93920       60.32654
H         82.16688       43.53474       64.59587
H         81.26098       41.55599       62.70436
H         83.68763       40.98685       62.49759
H         84.05745       42.03072       63.91848
H         83.03313       44.01522       62.68489
H         82.77195       42.96794       61.26039
H         85.47164       43.71147       62.58872
H         84.75181       44.45922       61.12006
H         84.84494       42.25519       59.92897
H         85.64583       41.51577       61.37015
H         87.43280       43.12998       61.13557
H         87.23082       42.20794       59.71798
H         86.67325       43.81334       59.76494
N         82.58488       40.20248       65.52939
C         82.48490       39.03506       66.40779
C         81.14329       38.94453       67.15523
O         80.94773       37.95468       67.84829
C         83.64418       39.00993       67.43696
C         83.65832       40.21651       68.32685
O         84.39068       40.25492       69.30188
O         82.85694       41.25665       68.04825
H         83.29094       40.92243       65.73441
H         82.59328       38.12116       65.78293
H         84.62728       38.93569       66.92601
H         83.52397       38.10435       68.07189
N         80.16570       39.89666       67.05868
C         78.85685       39.72758       67.67057
C         78.79934       39.96172       69.17279
O         77.73943       39.70301       69.72642
H         80.29640       40.71780       66.45613
H         78.48961       38.70432       67.43435
H         78.13494       40.41586       67.19143
N         79.85140       40.43672       69.91367
C         79.77905       40.52619       71.37927
C         78.73883       41.52499       71.89500
O         78.46821       41.51619       73.08735
C         81.18551       40.73460       72.01543
C         81.68241       42.17283       72.29369
N         83.13775       42.21038       72.39939
O         81.24769       43.12669       71.38360
H         80.73869       40.64990       69.44026
H         79.46615       39.50691       71.70117
H         81.92414       40.16034       71.41295
H         81.18306       40.26624       73.02277
H         83.44353       41.60314       73.19149
H         83.44001       43.19091       72.59805
N         78.12867       42.41875       71.05854
C         77.09885       43.36462       71.46601
C         77.53077       44.81363       71.31702
O         76.71605       45.68201       71.59606
H         78.40035       42.44220       70.07119
H         76.80978       43.21255       72.52882
H         76.19663       43.18569       70.84310
N         78.80906       45.15535       70.97448
C         79.32180       46.51740       71.00810
C         80.14260       46.83586       69.77336
O         81.14665       46.17855       69.53308
C         80.23944       46.72035       72.23417
C         79.49830       46.57970       73.54003
C         79.09425       45.31961       74.01496
C         79.20479       47.72383       74.29919
C         78.39392       45.21083       75.21927
C         78.50069       47.61387       75.49929
C         78.08998       46.35623       75.96259
O         77.40517       46.23814       77.11733
H         79.48365       44.41576       70.78424
H         78.48859       47.24878       71.10347
H         80.64177       47.75591       72.16111
H         81.11027       46.02911       72.22488
H         79.32357       44.41980       73.45877
H         79.50698       48.70518       73.95464
H         78.08566       44.23508       75.57306
H         78.27271       48.50819       76.06475
H         77.16977       47.00818       77.65442
N         79.81116       47.89035       68.98180
C         80.68034       48.38091       67.91649
C         81.88769       49.05296       68.55790
O         81.69362       49.96187       69.35495
C         79.92415       49.40217       67.01061
C         78.70323       48.71264       66.34331
C         80.87521       49.98463       65.93933
C         77.82269       49.66389       65.53316
H         78.94350       48.40694       69.19220
H         80.99123       47.53663       67.25907
H         79.56135       50.24115       67.64643
H         78.04890       48.27208       67.12347
H         79.04870       47.88693       65.68567
H         81.26327       49.18028       65.27900
H         80.36941       50.75019       65.31992
H         81.73718       50.50139       66.40886
H         76.94972       49.10385       65.13713
H         77.45260       50.48694       66.18075
H         78.36643       50.08805       64.66629
N         83.15876       48.70566       68.20598
C         84.34315       49.40413       68.70341
C         84.99223       50.19232       67.57685
O         84.51393       50.13896       66.45398
C         85.31666       48.41069       69.35783
O         85.76734       47.45846       68.43115
H         83.29108       47.96703       67.49984
H         84.05971       50.14862       69.47894
H         84.82108       47.92232       70.22808
H         86.19976       48.93986       69.77281
H         85.24831       46.62810       68.59131
N         86.05818       51.00351       67.82137
C         86.66209       51.85725       66.80110
C         87.26313       51.04820       65.66769
O         86.91210       51.28318       64.52021
C         87.74254       52.74788       67.42369
H         86.42293       51.05214       68.78566
H         85.88140       52.53875       66.39283
H         88.16888       53.42371       66.65122
H         87.29581       53.37528       68.22439
H         88.56130       52.13964       67.86264
N         88.18235       50.07612       65.92492
C         88.84121       49.28713       64.88758
C         87.84140       48.59417       63.98549
O         87.97019       48.70541       62.77378
C         89.76718       48.24533       65.52480
H         88.42167       49.88828       66.91090
H         89.47782       49.95676       64.26596
H         89.19060       47.54043       66.16117
H         90.29344       47.66802       64.73403
H         90.53237       48.75132       66.15147
N         86.80091       47.88606       64.50819
C         85.81361       47.19434       63.68145
C         85.17272       48.16267       62.70062
O         85.25987       47.93138       61.50264
C         84.72647       46.51071       64.54506
C         85.30638       45.44307       65.48975
C         84.22424       44.74174       66.26007
O         83.38927       45.43685       67.05481
O         84.11333       43.52934       66.18941
H         86.70553       47.86576       65.53373
H         86.32986       46.39790       63.09847
H         84.00364       46.01470       63.86099
H         84.17801       47.27374       65.14054
H         85.99658       45.90439       66.22203
H         85.87939       44.69669       64.89804
N         84.54900       49.28918       63.14248
C         83.96650       50.28501       62.26609
H         82.88965       50.40289       62.50597
H         84.47845       51.25755       62.42902
H         84.06442       50.01692       61.19333
H         84.50435       49.46857       64.15143
Ca        82.43303       42.79333       69.54167
O         83.69764       45.46558       70.78387
H         83.38575       46.21515       71.35004
H         84.64522       45.34217       71.04045
O         85.62585       43.51100       69.01091
H         86.22960       43.92155       69.67907
H         85.66041       42.54310       69.21193

Ca 1.0



