%chk=holoCaM.loop1.water2.frame52.chk
%nprocshared=20
%mem=10GB
%nosave
#b3lyp/svp scf=(tight,noincore,xqc) Test 
#IOP(5/87=12) Density=Current Pop=(MK,readradii) iop(6/33=2) iop(6/42=6)

holoCaM.loop1.water2.frame52 

   0  1 
C         65.36513      110.50677       41.54878
C         64.75764      111.86996       41.69105
O         65.19174      112.64850       42.52786
H         66.20480      110.36625       42.25977
H         64.58609      109.74220       41.76167
H         65.73239      110.36341       40.51098
N         63.71308      112.21189       40.89402
C         62.98241      113.46857       41.00074
C         62.33495      113.54355       42.37940
O         61.60013      112.62941       42.72751
C         61.92911      113.49326       39.88014
C         61.07062      114.70427       39.84124
O         60.11858      114.71329       39.08834
O         61.22380      115.71053       40.70454
H         63.40759      111.51930       40.19085
H         63.67826      114.31920       40.84380
H         61.25622      112.62008       40.01561
H         62.43126      113.40708       38.89160
N         62.59811      114.58125       43.22962
C         62.16062      114.60442       44.62560
C         61.17191      115.74388       44.92934
O         60.66204      115.77836       46.04001
C         63.44616      114.63962       45.49207
C         63.24827      114.31626       46.98350
C         64.56983      114.32088       47.78403
C         65.58316      113.24796       47.33511
N         66.77545      113.26334       48.18430
H         63.19614      115.34956       42.89907
H         61.62568      113.65726       44.85462
H         63.95027      115.62425       45.37220
H         64.11685      113.85732       45.08031
H         62.76971      113.31741       47.08440
H         62.58095      115.07304       47.44188
H         64.31558      114.12725       48.84917
H         65.04000      115.32603       47.71863
H         65.90175      113.42475       46.28615
H         65.10805      112.24383       47.39496
H         66.51377      113.08509       49.18103
H         67.43082      112.51100       47.86999
H         67.26134      114.18635       48.10621
N         60.82875      116.68830       43.99650
C         59.82417      117.74211       44.21249
C         58.68880      117.72351       43.17015
O         57.77552      118.52723       43.30271
C         60.46865      119.15293       44.32232
C         61.35353      119.62169       43.19445
O         61.79058      120.75937       43.21037
O         61.76655      118.78678       42.23522
H         61.29565      116.65526       43.08637
H         59.32188      117.58274       45.19350
H         61.08912      119.19151       45.24344
H         59.64799      119.89262       44.45297
N         58.62670      116.80155       42.16496
C         57.49185      116.65249       41.25947
C         57.45196      117.63989       40.10837
O         56.44484      118.31318       39.94327
H         59.34684      116.07564       42.11365
H         56.54342      116.66889       41.84182
H         57.56129      115.64998       40.78775
N         58.49476      117.72837       39.23216
C         58.49111      118.56830       38.02824
C         58.83226      117.78197       36.74949
O         58.96226      118.39295       35.69794
C         59.44007      119.76171       38.25069
C         60.88817      119.42620       38.43810
O         61.74381      120.41747       38.74379
O         61.30244      118.28661       38.30873
H         59.34161      117.18296       39.44357
H         57.48724      119.01775       37.87062
H         59.09474      120.29237       39.16395
H         59.36508      120.46755       37.39609
N         58.97986      116.42692       36.76410
C         59.34123      115.60561       35.61862
C         60.71711      115.91734       35.07738
O         60.86861      115.92376       33.86637
H         58.80221      115.92124       37.63455
H         58.57702      115.68735       34.81458
H         59.36019      114.54449       35.95087
N         61.77803      116.10020       35.91697
C         63.15676      116.35050       35.47027
C         64.16075      116.17394       36.62134
O         63.77046      116.01647       37.77046
C         63.35481      117.77626       34.84117
C         62.70957      118.03103       33.47255
O         62.97155      118.78315       35.74052
H         61.58558      116.00708       36.92434
H         63.42716      115.56484       34.73132
H         64.43911      117.90355       34.63980
H         61.98088      118.76461       35.80107
H         61.60714      118.08701       33.53415
H         63.04132      119.01895       33.08837
H         63.02617      117.25134       32.74713
N         65.50043      116.16064       36.34881
C         66.55123      115.99180       37.35005
C         67.46363      117.21051       37.32267
O         68.12162      117.44497       36.31795
C         67.32341      114.65799       37.06926
C         66.41276      113.45619       37.44536
C         68.66761      114.57955       37.81993
C         67.02357      112.08183       37.15859
H         65.80182      116.25465       35.36705
H         66.12042      115.92523       38.37049
H         67.57130      114.61782       35.98466
H         65.46266      113.52395       36.87436
H         66.16694      113.50429       38.53041
H         69.22900      113.66484       37.54537
H         69.33212      115.41489       37.52570
H         68.51218      114.59536       38.91209
H         67.93481      111.90359       37.76509
H         66.29394      111.29167       37.43501
H         67.26817      111.98453       36.08058
N         67.55488      118.02927       38.41391
C         68.47704      119.16309       38.48619
C         69.92085      118.68966       38.60263
O         70.18173      117.50169       38.72375
C         68.17629      120.07099       39.72395
C         66.82402      120.75259       39.64391
O         68.24153      119.31938       40.90301
H         66.94114      117.84033       39.21996
H         68.36436      119.78460       37.57043
H         68.92249      120.89246       39.76993
H         68.26711      119.95935       41.66099
H         66.71069      121.44395       40.50639
H         66.73512      121.33956       38.70647
H         66.04097      119.98582       39.71111
N         70.90768      119.62407       38.66899
C         72.29404      119.34912       39.03066
C         72.35064      118.62990       40.37132
O         73.07352      117.65282       40.49880
C         73.08624      120.68534       39.13493
C         73.22846      121.38000       37.77830
O         72.45318      121.57603       40.02392
H         70.63385      120.60690       38.53613
H         72.78337      118.70982       38.26204
H         74.12461      120.46510       39.48049
H         72.93031      121.52974       40.89270
H         73.77369      120.72409       37.06861
H         72.24121      121.63815       37.34237
H         73.80240      122.32267       37.90419
N         71.60746      119.08273       41.41720
C         71.62843      118.51382       42.76126
C         71.13195      117.06911       42.76128
O         71.84481      116.18821       43.21999
C         70.80333      119.44783       43.68098
C         71.04033      119.24173       45.18074
C         70.44402      120.43104       45.96289
C         70.74783      120.41241       47.46931
N         72.18617      120.46675       47.74766
H         71.00879      119.90582       41.24873
H         72.67836      118.54883       43.12739
H         69.71911      119.41272       43.44091
H         71.16485      120.47807       43.46112
H         72.13690      119.22929       45.34092
H         70.61038      118.27609       45.52350
H         69.34174      120.45078       45.81725
H         70.85656      121.38218       45.55645
H         70.30384      119.51111       47.94298
H         70.26680      121.31128       47.91755
H         72.64964      119.57376       47.46743
H         72.62750      121.27163       47.24517
H         72.33065      120.59442       48.77486
N         69.92050      116.76078       42.21903
C         69.34750      115.41337       42.13548
C         70.14660      114.47270       41.23422
O         69.81895      113.29396       41.20430
C         67.90254      115.50269       41.58311
C         66.96717      116.27648       42.52965
C         65.62263      116.56997       41.92932
O         65.33969      116.22024       40.79487
O         64.72988      117.27468       42.64750
H         69.37784      117.54072       41.84365
H         69.31866      114.97379       43.15703
H         67.47026      114.48865       41.42279
H         67.94800      116.02160       40.60085
H         67.40460      117.25852       42.79276
H         66.83229      115.68999       43.46373
N         71.17705      114.90951       40.45567
C         71.95404      114.05048       39.58520
H         73.02273      114.10078       39.88238
H         71.62683      112.99093       39.62669
H         71.85865      114.40790       38.53823
H         71.42519      115.90135       40.45106
Ca        62.53390      117.50108       40.59180
O         64.19686      120.29870       41.45202
H         64.22083      119.91727       42.36430
H         64.51480      121.22860       41.56728
O         64.16851      119.36647       38.43480
H         64.39038      118.67351       37.76992
H         64.42222      120.21973       38.00013

Ca 1.0



