%chk=holoCaM-CaMKII.loop4.water1.frame462.chk
%nprocshared=20
%mem=10GB
%nosave
#b3lyp/svp scf=(tight,noincore,xqc) Test 
#IOP(5/87=12) Density=Current Pop=(MK,readradii) iop(6/33=2) iop(6/42=6)

holoCaM-CaMKII.loop4.water1.frame462 

   -3  1 
C         85.30634       56.59514       36.07885
C         84.70925       55.33087       35.52665
O         83.68609       54.88853       36.02645
H         86.23018       56.88189       35.53128
H         84.57608       57.42590       35.98750
H         85.56749       56.45061       37.14775
N         85.30763       54.69018       34.48629
C         84.79478       53.46514       33.87879
C         84.74820       52.34181       34.90962
O         85.77076       52.08944       35.53257
C         85.71264       53.07961       32.69910
C         85.20824       51.92968       31.88208
O         85.88264       51.51850       30.95481
O         84.01686       51.36312       32.13621
H         86.17167       55.10427       34.10139
H         83.78300       53.66902       33.47014
H         86.72386       52.83271       33.08961
H         85.80503       53.94685       32.00874
N         83.60229       51.62249       35.13456
C         83.49738       50.58937       36.17260
C         83.36359       49.17371       35.60321
O         83.54741       48.23624       36.36655
C         82.32148       50.94356       37.14782
C         82.32151       50.15902       38.48576
C         80.94870       50.73434       36.47066
C         83.54489       50.43459       39.36028
H         82.77880       51.83068       34.55561
H         84.44713       50.59643       36.74055
H         82.41531       52.02174       37.41061
H         82.22452       49.06790       38.31060
H         81.43471       50.47909       39.07762
H         80.77658       49.66037       36.24552
H         80.13104       51.07964       37.13943
H         80.86410       51.29296       35.52183
H         83.43325       49.89548       40.32479
H         84.47886       50.08001       38.88306
H         83.62567       51.52198       39.57400
N         83.01061       48.93087       34.30354
C         82.83684       47.58109       33.75665
C         83.68489       47.32165       32.50711
O         83.55848       46.24951       31.93164
C         81.33789       47.30552       33.49823
C         80.67665       48.14174       32.43701
O         79.37987       47.92101       32.15131
O         81.28939       48.99790       31.82114
H         82.79579       49.72636       33.69001
H         83.14306       46.81928       34.50644
H         80.78455       47.44924       34.45247
H         81.22201       46.24023       33.20278
N         84.59904       48.22470       32.05233
C         85.45754       47.99700       30.89892
C         84.71291       48.00609       29.57842
O         84.81258       47.04564       28.82929
H         84.75590       49.09057       32.58135
H         86.02463       47.05061       31.03501
H         86.19888       48.82288       30.84659
N         83.98704       49.10019       29.21557
C         83.33765       49.28087       27.91028
C         83.81270       50.55308       27.19634
O         83.33994       50.81749       26.09909
C         81.79723       49.26344       28.06278
C         81.22360       50.29722       28.99615
O         80.02810       50.28855       29.24044
O         82.02671       51.16996       29.62907
H         83.91408       49.85063       29.91322
H         83.58901       48.43072       27.23864
H         81.51483       48.26484       28.46135
H         81.32298       49.37396       27.06292
N         84.75600       51.37562       27.73819
C         85.25586       52.58411       27.10602
C         84.19914       53.65502       26.96285
O         84.04907       54.18877       25.87593
H         85.18233       51.13568       28.63904
H         85.71794       52.34446       26.12333
H         86.05236       53.00841       27.75641
N         83.47726       54.05167       28.05174
C         82.53482       55.18487       28.06791
C         82.00034       55.42972       29.48250
O         82.24620       54.61621       30.35744
C         81.39496       55.02951       27.02268
C         80.50024       53.79022       27.20009
C         79.56011       53.92482       28.36541
N         78.63605       54.91236       28.38372
O         79.61683       53.13238       29.29135
H         83.67021       53.53976       28.92388
H         83.11974       56.09012       27.79469
H         81.84546       54.95925       26.01548
H         80.77406       55.94990       26.99557
H         81.13602       52.88237       27.28952
H         79.87044       53.67140       26.29183
H         78.55434       55.57924       27.60279
H         77.99258       55.00662       29.17782
N         81.32515       56.57613       29.80511
C         80.91980       56.86667       31.18334
C         79.44489       57.24894       31.24212
O         79.08834       58.31899       30.76969
C         81.83352       57.98852       31.76740
C         81.50655       58.29851       33.23597
C         83.32061       57.59606       31.67426
H         81.17937       57.29472       29.08105
H         81.06566       55.96907       31.82296
H         81.68810       58.91786       31.17350
H         82.15834       59.11700       33.60975
H         80.45682       58.62995       33.35085
H         81.68203       57.40484       33.86652
H         83.96104       58.40735       32.08135
H         83.51923       56.66429       32.24794
H         83.62552       57.43719       30.61907
N         78.52865       56.41574       31.82156
C         77.12319       56.78392       32.01908
C         76.98653       57.78529       33.16048
O         77.97563       58.12087       33.79126
C         76.27359       55.52837       32.34314
C         76.14689       54.61676       31.14883
N         76.57354       53.33539       31.19723
O         75.62762       55.03996       30.12626
H         78.84366       55.48615       32.13571
H         76.71942       57.24333       31.08955
H         75.23626       55.81591       32.61160
H         76.71090       54.99791       33.21739
H         76.99033       52.95293       32.05404
H         76.47662       52.72011       30.37571
N         75.76273       58.29220       33.49053
C         75.53434       59.19361       34.61858
C         75.90512       58.52932       35.93357
O         76.58260       59.15463       36.73614
C         74.05664       59.63954       34.66346
C         73.79419       60.59186       35.81183
C         74.47461       61.82064       35.89471
C         72.87397       60.25217       36.81792
C         74.24548       62.68589       36.96815
C         72.64361       61.12156       37.88864
C         73.33149       62.34097       37.96826
O         73.12357       63.18623       38.99792
H         74.95132       58.01793       32.91624
H         76.15472       60.10611       34.48020
H         73.40849       58.73948       34.75229
H         73.79804       60.15111       33.71119
H         75.18782       62.10959       35.13367
H         72.33717       59.31266       36.77806
H         74.78149       63.62526       37.02309
H         71.93298       60.84467       38.65704
H         72.50129       62.98518       39.71138
N         75.49554       57.26045       36.21753
C         75.85549       56.56047       37.44994
C         77.36923       56.54889       37.64600
O         77.83976       56.93289       38.70729
C         75.23508       55.13346       37.48204
C         75.75747       54.15405       36.41567
C         75.03108       52.84088       36.46850
O         75.06532       52.09152       37.58702
O         74.42388       52.43562       35.48981
H         74.92539       56.76888       35.51290
H         75.40165       57.10465       38.30824
H         74.13504       55.24152       37.35627
H         75.41927       54.68604       38.48376
H         76.82504       53.94307       36.60252
H         75.63779       54.58969       35.40178
N         78.18873       56.16573       36.63056
C         79.64983       56.12209       36.71361
C         80.26812       57.48921       36.95191
O         81.34991       57.54888       37.52045
C         80.20573       55.52601       35.40660
C         79.81519       54.05073       35.29800
C         80.04374       53.49981       33.93056
O         81.25607       53.51037       33.36566
O         79.11193       53.00975       33.31921
H         77.74030       55.89489       35.74257
H         79.94798       55.46281       37.56060
H         81.31311       55.59031       35.36931
H         79.79046       56.10725       34.55418
H         78.74342       53.90630       35.51669
H         80.39239       53.48182       36.05462
N         79.66191       58.62825       36.52721
C         80.22620       59.94070       36.74736
H         81.21728       60.01640       36.25299
H         79.55353       60.71529       36.32010
H         80.33424       60.12873       37.83677
H         78.77236       58.56695       36.02687
Ca        81.44854       52.26735       31.50204
O         78.10736       50.49453       32.27959
H         78.93231       50.48560       32.82721
H         77.37710       50.60765       32.93833

Ca 1.0



