%chk=holoCaM.loop2.water2.frame38.chk
%nprocshared=20
%mem=10GB
%nosave
#b3lyp/svp scf=(tight,noincore,xqc) Test 
#IOP(5/87=12) Density=Current Pop=(MK,readradii) iop(6/33=2) iop(6/42=6)

holoCaM.loop2.water2.frame38 

   -2  1 
C        -12.18559       19.11482       20.75961
C        -13.36215       20.03959       20.83948
O        -13.67769       20.70917       19.86638
H        -11.43526       19.40840       21.52478
H        -12.51774       18.07458       20.96206
H        -11.71288       19.15697       19.75673
N        -14.06294       20.12131       21.99981
C        -15.21291       20.99573       22.18955
C        -14.78102       22.45259       22.02713
O        -13.93295       22.90236       22.78538
C        -15.77498       20.73851       23.60260
C        -17.00552       21.50025       23.96010
O        -17.60524       22.17987       23.14414
O        -17.44300       21.42719       25.22620
H        -13.75735       19.52114       22.78340
H        -15.99176       20.72590       21.44092
H        -14.98929       20.99774       24.34374
H        -16.01690       19.65859       23.72085
N        -15.31562       23.24212       21.04872
C        -14.85341       24.60215       20.76700
C        -15.72834       25.68849       21.38344
O        -15.32433       26.84185       21.33048
C        -14.79411       24.81996       19.24886
H        -16.02924       22.83513       20.43634
H        -13.82686       24.72512       21.17690
H        -14.39463       25.82932       19.01225
H        -14.14766       24.05865       18.76591
H        -15.81653       24.74237       18.81496
N        -16.93164       25.41425       21.96275
C        -17.79902       26.43111       22.57315
C        -18.06012       26.14027       24.04984
O        -18.73682       26.93459       24.68798
C        -19.13484       26.57701       21.79697
C        -19.93991       25.30819       21.79876
O        -21.03979       25.25050       22.32311
O        -19.39598       24.23411       21.21253
H        -17.24394       24.43815       21.96566
H        -17.30411       27.42557       22.52815
H        -18.91747       26.86138       20.74309
H        -19.72879       27.40161       22.24861
N        -17.53501       25.04628       24.67186
C        -17.67950       24.77690       26.08891
C        -19.09926       24.49836       26.53080
O        -19.56776       25.17163       27.43722
H        -16.94124       24.39145       24.14934
H        -17.25432       25.62695       26.66449
H        -17.07869       23.87523       26.33681
N        -19.81145       23.46644       25.99292
C        -21.10221       23.01449       26.52097
C        -20.99164       21.60008       27.09556
O        -21.56505       21.34486       28.14468
C        -22.23863       23.14491       25.49311
C        -22.18170       22.14954       24.36631
N        -23.20222       21.27872       24.18167
O        -21.22528       22.13501       23.60770
H        -19.39098       22.96217       25.20315
H        -21.41200       23.67798       27.35862
H        -22.24408       24.17690       25.08046
H        -23.19830       23.00403       26.03812
H        -24.02204       21.27627       24.80624
H        -23.18357       20.60664       23.40641
N        -20.18931       20.66465       26.50634
C        -19.89413       19.35403       27.06253
C        -20.02879       18.23505       26.04787
O        -19.65897       17.11909       26.38713
H        -19.68642       20.90983       25.65087
H        -20.50532       19.13226       27.96374
H        -18.82673       19.36687       27.37398
N        -20.53828       18.43641       24.79558
C        -20.64656       17.38345       23.78541
C        -19.93267       17.80802       22.49890
O        -19.36484       18.89357       22.46983
C        -22.13797       17.04371       23.56232
C        -22.78846       16.56721       24.87183
O        -22.81872       18.16746       23.07818
H        -20.89992       19.36626       24.53911
H        -20.15139       16.45034       24.13504
H        -22.20496       16.21856       22.81954
H        -23.71304       17.85815       22.77876
H        -23.84709       16.28728       24.69261
H        -22.25204       15.67908       25.26900
H        -22.77080       17.36950       25.64081
N        -19.89778       16.99027       21.40066
C        -19.15392       17.30785       20.17881
C        -20.10253       17.45503       18.98639
O        -20.74302       16.48803       18.59753
C        -18.08195       16.20163       19.91817
C        -17.09288       16.02268       21.10296
C        -17.30841       16.42987       18.60673
C        -16.25845       17.26170       21.45011
H        -20.39009       16.08499       21.43823
H        -18.62148       18.27423       20.29592
H        -18.61463       15.23029       19.80374
H        -16.39449       15.19225       20.85668
H        -17.65436       15.71667       22.01144
H        -17.99758       16.42331       17.74092
H        -16.76557       17.39358       18.61771
H        -16.57998       15.60740       18.44239
H        -16.90434       18.09556       21.78701
H        -15.56633       17.01476       22.28235
H        -15.64685       17.59680       20.58847
N        -20.22046       18.66117       18.35258
C        -21.02808       18.90831       17.15575
C        -20.36746       18.32018       15.91647
O        -19.29773       17.74530       16.02626
C        -21.18835       20.43207       16.93094
C        -21.92200       21.10512       18.05063
O        -21.34162       22.11501       18.72257
O        -23.06136       20.76808       18.33057
H        -19.71385       19.45789       18.75081
H        -22.04023       18.46784       17.29139
H        -21.77902       20.62724       16.01352
H        -20.18534       20.89960       16.80728
N        -20.94961       18.44260       14.68723
C        -20.33875       17.94498       13.45886
C        -19.03288       18.67849       13.11952
O        -18.04946       17.98170       12.92206
C        -21.34677       17.97027       12.28392
C        -20.79442       17.30926       11.04187
C        -20.43695       15.94840       11.06046
C        -20.64234       18.03989        9.85034
C        -19.93218       15.33387        9.91227
C        -20.13763       17.41939        8.70265
C        -19.78228       16.06818        8.73406
H        -21.87949       18.88423       14.62461
H        -20.10485       16.86974       13.62153
H        -21.66666       18.99867       12.05144
H        -22.26323       17.41728       12.58329
H        -20.55180       15.35893       11.96082
H        -20.91276       19.08772        9.80766
H        -19.65970       14.28667        9.93690
H        -20.02269       17.98575        7.78768
H        -19.39277       15.58886        7.84548
N        -18.90861       20.04845       13.02975
C        -17.64374       20.73318       12.74851
C        -16.52689       20.29137       13.67673
O        -15.43300       19.97910       13.22840
C        -17.95987       22.21612       13.02585
C        -19.41818       22.30063       12.66245
C        -19.96316       21.01423       13.27419
H        -17.37593       20.58304       11.67924
H        -17.91819       22.43209       14.11835
H        -17.28748       22.93753       12.51399
H        -19.93611       23.22562       12.99632
H        -19.49284       22.22370       11.55418
H        -20.10306       21.11164       14.37007
H        -20.92249       20.80096       12.78068
N        -16.77812       20.24224       15.00999
C        -15.82450       19.87935       16.05341
C        -15.29809       18.47303       15.83334
O        -14.10235       18.26217       15.97710
C        -16.51347       20.05240       17.43295
C        -16.85605       21.54594       17.63295
C        -17.73063       21.87845       18.79565
O        -18.18065       20.96990       19.68157
O        -18.07343       23.04273       18.92858
H        -17.74366       20.46303       15.29619
H        -14.95629       20.57692       16.03602
H        -15.84605       19.72428       18.25946
H        -17.43811       19.43517       17.45467
H        -17.41472       21.94029       16.76347
H        -15.91216       22.12796       17.71024
N        -16.12328       17.48468       15.39308
C        -15.68576       16.14370       15.06815
H        -14.60750       15.98712       15.27606
H        -16.27616       15.41206       15.65664
H        -15.86470       15.95687       13.98690
H        -17.10884       17.70192       15.22870
Ca       -19.64854       22.01899       21.02587
O        -23.16903       23.04178       21.33738
H        -23.31702       23.59882       22.14239
H        -22.22408       23.20585       21.09364
O        -21.96641       20.16933       21.22417
H        -22.86400       19.84513       20.96254
H        -21.36083       19.81040       20.53149

Ca 1.0



