%chk=holoCaM.loop1.water2.frame123.chk
%nprocshared=20
%mem=10GB
%nosave
#b3lyp/svp scf=(tight,noincore,xqc) Test 
#IOP(5/87=12) Density=Current Pop=(MK,readradii) iop(6/33=2) iop(6/42=6)

holoCaM.loop1.water2.frame123 

   0  1 
C        111.89209       79.18050      -11.99422
C        113.05784       80.09588      -12.21632
O        113.03260       80.89478      -13.14131
H        111.09721       79.35681      -12.74842
H        112.23581       78.12657      -12.08005
H        111.47662       79.34232      -10.97813
N        114.14404       79.99356      -11.40608
C        115.36854       80.75855      -11.57720
C        116.43157       79.77530      -12.00879
O        116.78737       78.88928      -11.24389
C        115.69049       81.49452      -10.26189
C        117.08730       82.04539      -10.15514
O        117.79451       81.66339       -9.23708
O        117.58043       82.95956      -11.01244
H        114.12668       79.28129      -10.65836
H        115.25010       81.51648      -12.38036
H        115.56441       80.77856       -9.41961
H        114.95128       82.31298      -10.11801
N        116.92221       79.83804      -13.27785
C        117.77568       78.80945      -13.85518
C        119.25286       79.15037      -13.71703
O        120.06381       78.30939      -14.07928
C        117.39926       78.58538      -15.34630
C        115.92709       78.15011      -15.51882
C        115.48628       77.97166      -16.98479
C        116.22789       76.84308      -17.71998
N        115.68793       76.65417      -19.06767
H        116.55799       80.56987      -13.90181
H        117.60643       77.84936      -13.31910
H        118.06080       77.80020      -15.76718
H        117.56997       79.52671      -15.91499
H        115.26431       78.92687      -15.08022
H        115.75416       77.20072      -14.96768
H        115.61359       78.92891      -17.53672
H        114.40191       77.72277      -16.97665
H        116.11448       75.89440      -17.15012
H        117.30941       77.08373      -17.79671
H        116.21321       75.88523      -19.54360
H        114.67758       76.38710      -19.01731
H        115.79212       77.53180      -19.62693
N        119.68650       80.35725      -13.23950
C        121.10237       80.72378      -13.17104
C        121.53474       81.30355      -11.81429
O        122.68260       81.70986      -11.69878
C        121.47566       81.58999      -14.39303
C        120.72650       82.87678      -14.56879
O        120.97297       83.57288      -15.54003
O        119.77450       83.26382      -13.70268
H        118.99139       81.07674      -12.99828
H        121.73693       79.81972      -13.30092
H        121.28360       80.97835      -15.30372
H        122.56462       81.80890      -14.36319
N        120.72667       81.25319      -10.71468
C        121.17895       81.55784       -9.35849
C        121.38590       83.02517       -9.04893
O        122.45792       83.39255       -8.58962
H        119.78717       80.84341      -10.80464
H        122.10047       80.97583       -9.13457
H        120.39850       81.21069       -8.64926
N        120.36833       83.91032       -9.22289
C        120.41637       85.31869       -8.83023
C        119.16344       85.77721       -8.06360
O        119.13373       86.93378       -7.66440
C        120.63739       86.18896      -10.08016
C        119.70880       85.83129      -11.20445
O        118.37700       85.83629      -11.02991
O        120.17050       85.49610      -12.28114
H        119.52774       83.56793       -9.69816
H        121.27992       85.50619       -8.15360
H        121.67956       86.03288      -10.43652
H        120.53582       87.26474       -9.81900
N        118.09407       84.96119       -7.82286
C        116.88587       85.39596       -7.13433
C        116.18087       86.51118       -7.87620
O        115.90565       87.53467       -7.27311
H        118.11052       83.98323       -8.13167
H        117.13130       85.71315       -6.09662
H        116.18431       84.53562       -7.06932
N        115.82850       86.34858       -9.18215
C        115.14029       87.34211      -10.01616
C        114.74135       86.68562      -11.33647
O        115.59456       86.14662      -12.02556
C        115.97365       88.62536      -10.34303
C        116.09189       89.68256       -9.23473
O        117.23970       88.30754      -10.85010
H        116.04188       85.42934       -9.60121
H        114.20442       87.66629       -9.51077
H        115.41315       89.16204      -11.14180
H        117.81056       88.05808      -10.07671
H        116.56392       90.59567       -9.65715
H        115.08423       89.95802       -8.85717
H        116.74210       89.36171       -8.40294
N        113.44985       86.74676      -11.76561
C        112.96130       86.15751      -13.00896
C        112.85719       87.24775      -14.06118
O        112.35286       88.32684      -13.78404
C        111.62415       85.40388      -12.74492
C        111.91856       84.16175      -11.85895
C        110.93705       84.99228      -14.06316
C        110.67795       83.37027      -11.44348
H        112.77661       87.29567      -11.20904
H        113.68503       85.40884      -13.40454
H        110.92734       86.09047      -12.21438
H        112.42724       84.48715      -10.92638
H        112.60735       83.47676      -12.40129
H        111.57475       84.29799      -14.64489
H        109.95800       84.51233      -13.86835
H        110.71377       85.88427      -14.68528
H        110.98752       82.52068      -10.79821
H        109.98269       84.01936      -10.87162
H        110.15291       82.94069      -12.32013
N        113.33709       86.99984      -15.31371
C        113.43845       87.98477      -16.38428
C        112.46816       87.66345      -17.50966
O        111.71502       86.70621      -17.40431
C        114.89993       87.97456      -16.91591
C        115.90240       88.33581      -15.82306
O        115.21499       86.69720      -17.41458
H        113.67365       86.04844      -15.52530
H        113.18542       89.00223      -16.01373
H        114.99430       88.72922      -17.72871
H        115.97314       86.80467      -18.04658
H        116.92732       88.33025      -16.25170
H        115.68915       89.34617      -15.41786
H        115.86179       87.59127      -14.99995
N        112.43554       88.43818      -18.63488
C        111.59790       88.12828      -19.79424
C        112.06275       86.86716      -20.53209
O        111.38601       86.47370      -21.47156
C        111.57047       89.30895      -20.79815
C        110.96900       90.57743      -20.18225
O        112.87060       89.57054      -21.26358
H        113.03173       89.27797      -18.66481
H        110.55415       87.96732      -19.44079
H        110.91288       89.01229      -21.65057
H        112.77901       89.98615      -22.16055
H        111.57514       90.94272      -19.32824
H        110.92737       91.37997      -20.94875
H        109.93447       90.37734      -19.83025
N        113.18654       86.17783      -20.16893
C        113.64180       84.96005      -20.83243
C        113.39666       83.73863      -19.96016
O        113.63506       82.63379      -20.43027
C        115.15242       85.05922      -21.13053
C        115.52563       86.25015      -22.02124
C        117.05174       86.30673      -22.20724
C        117.52410       87.50024      -23.05206
N        117.04745       87.42841      -24.43387
H        113.74440       86.49894      -19.37253
H        113.07638       84.79922      -21.77580
H        115.49393       84.12309      -21.62550
H        115.69441       85.15487      -20.16192
H        115.19036       87.19701      -21.54444
H        115.01310       86.13448      -22.99847
H        117.41371       85.36306      -22.67102
H        117.52414       86.40075      -21.20395
H        118.63707       87.49429      -23.05922
H        117.19114       88.45329      -22.58459
H        117.46470       88.21854      -24.97655
H        117.34553       86.52603      -24.87086
H        116.00797       87.51955      -24.47271
N        112.93916       83.85271      -18.68074
C        112.70245       82.72641      -17.79514
C        111.26011       82.70367      -17.29812
O        110.92582       81.80655      -16.53644
C        113.66430       82.83517      -16.60110
C        115.13169       82.93759      -17.04879
C        116.00890       83.03936      -15.84829
O        116.87324       82.20372      -15.64781
O        115.81772       84.02914      -14.95876
H        112.79175       84.78082      -18.27480
H        112.90153       81.76488      -18.31666
H        113.53648       81.94878      -15.94006
H        113.41111       83.74513      -16.01640
H        115.28847       83.84644      -17.66681
H        115.40805       82.04228      -17.64796
N        110.34643       83.65047      -17.66906
C        108.98704       83.64396      -17.17583
H        108.47627       82.70717      -17.48081
H        108.98349       83.72893      -16.06907
H        108.42930       84.50863      -17.59627
H        110.60058       84.40965      -18.31489
Ca       116.65450       83.65828      -12.92147
O        118.00302       87.87268      -13.51991
H        118.79290       87.75239      -12.93938
H        118.35196       88.38297      -14.29147
O        118.95127       85.82311      -15.30569
H        118.88499       85.15737      -16.03499
H        119.91612       86.03992      -15.24678

Ca 1.0



