%chk=holoCaM-CaMKII.loop4.water1.frame317.chk
%nprocshared=20
%mem=10GB
%nosave
#b3lyp/svp scf=(tight,noincore,xqc) Test 
#IOP(5/87=12) Density=Current Pop=(MK,readradii) iop(6/33=2) iop(6/42=6)

holoCaM-CaMKII.loop4.water1.frame317 

   -3  1 
C         44.21033       29.96611       78.90295
C         44.28147       31.07100       79.91132
O         45.36020       31.38774       80.38974
H         43.75267       30.34337       77.96398
H         45.22121       29.56659       78.67913
H         43.57999       29.14707       79.30954
N         43.14420       31.71893       80.27017
C         43.10939       32.78205       81.25994
C         43.39783       32.24783       82.65891
O         42.76302       31.29872       83.09526
C         41.75462       33.50595       81.20327
C         41.62202       34.50820       82.30754
O         40.60093       34.51139       82.97075
O         42.72253       35.12101       82.78810
H         42.26530       31.45110       79.79933
H         43.86013       33.55606       80.99192
H         40.91038       32.78654       81.26655
H         41.68457       34.03716       80.22772
N         44.30719       32.89779       83.43901
C         44.67700       32.53030       84.79778
C         44.12182       33.57164       85.78452
O         43.48464       33.17274       86.74920
C         46.22945       32.35492       84.86188
C         46.67176       31.27682       83.82644
C         46.68032       31.97260       86.28249
C         48.17925       31.01611       83.75307
H         44.77030       33.72596       83.04741
H         44.22541       31.55119       85.07541
H         46.71435       33.32154       84.59789
H         46.36217       31.60464       82.81263
H         46.16227       30.31326       84.04602
H         46.23627       31.00087       86.58553
H         47.78554       31.89853       86.34080
H         46.37964       32.75269       87.01156
H         48.56282       30.58101       84.69662
H         48.38010       30.28314       82.94179
H         48.73773       31.94553       83.52734
N         44.28827       34.91570       85.59459
C         43.79620       35.94943       86.52116
C         42.27528       36.01149       86.68636
O         41.82076       36.78239       87.52232
C         44.18524       37.34979       86.00493
C         45.65697       37.56456       85.85364
O         46.46698       37.49625       86.92466
O         46.12082       37.84651       84.76242
H         44.81097       35.21852       84.76393
H         44.25507       35.76900       87.51768
H         43.80511       38.13896       86.69134
H         43.69424       37.47157       85.01752
N         41.42228       35.31809       85.89008
C         39.97983       35.50060       85.92849
C         39.56303       36.90797       85.52304
O         38.75147       37.50475       86.21524
H         41.79644       34.66288       85.19407
H         39.57356       35.23420       86.92908
H         39.52159       34.80323       85.19758
N         40.06159       37.48463       84.38945
C         39.58941       38.75247       83.82406
C         39.08016       38.55404       82.38708
O         38.74234       39.54015       81.74731
C         40.65829       39.87674       83.94138
C         42.01138       39.50717       83.43719
O         42.97432       39.54759       84.18230
O         42.16837       39.06036       82.19354
H         40.79828       36.98155       83.87256
H         38.71936       39.14333       84.39457
H         40.76997       40.14135       85.01526
H         40.30499       40.78356       83.40684
N         38.91068       37.30851       81.84429
C         38.31749       37.06524       80.53463
C         39.21383       37.37093       79.35046
O         38.76599       37.13691       78.23471
H         39.10535       36.47454       82.41111
H         37.35772       37.62031       80.45329
H         38.07971       35.98115       80.46052
N         40.47838       37.86007       79.48709
C         41.38687       38.08873       78.36489
C         42.65793       37.27800       78.53778
O         42.81409       36.62101       79.55957
C         41.62269       39.61263       78.16661
C         42.10760       40.44087       79.37619
C         43.56411       40.26225       79.75256
N         44.40218       41.32591       79.76079
O         43.99184       39.16969       80.08331
H         40.83003       38.06058       80.42999
H         40.92567       37.72738       77.41857
H         40.62260       40.02639       77.90824
H         42.28536       39.80195       77.29563
H         41.44611       40.25225       80.24130
H         41.95718       41.51038       79.11649
H         44.06911       42.26873       79.51319
H         45.38893       41.21181       80.03460
N         43.59746       37.23054       77.55570
C         44.85045       36.48860       77.67339
C         46.01188       37.41487       77.35027
O         46.00917       38.01582       76.28192
C         44.81915       35.22362       76.77277
C         46.15480       34.46020       76.82659
C         43.70199       34.26982       77.24229
H         43.40423       37.71999       76.66616
H         44.98544       36.11560       78.70481
H         44.62751       35.51962       75.71847
H         46.10894       33.55504       76.18448
H         46.99025       35.09031       76.45778
H         46.37623       34.13859       77.86478
H         42.70681       34.75555       77.18088
H         43.67535       33.35637       76.61150
H         43.87508       33.95693       78.29686
N         47.06321       37.54318       78.21399
C         48.22020       38.40318       77.96487
C         49.45063       37.56803       77.65126
O         49.33609       36.35772       77.57658
C         48.45987       39.40065       79.13000
C         49.22780       38.85680       80.32016
N         48.73774       37.88198       81.11379
O         50.32503       39.33158       80.57652
H         47.06042       36.95673       79.05729
H         48.02042       39.02837       77.06664
H         47.49773       39.85553       79.44706
H         49.07607       40.23092       78.72005
H         47.80958       37.48031       80.95638
H         49.28595       37.54518       81.91855
N         50.65903       38.14684       77.42917
C         51.86258       37.41587       77.02852
C         52.27029       36.34272       78.03668
O         52.46594       35.20623       77.63192
C         53.00027       38.42995       76.78794
C         54.22491       37.85365       76.11858
C         54.12474       37.23907       74.85662
C         55.48751       37.97509       76.72097
C         55.26625       36.75892       74.21008
C         56.62990       37.50093       76.06778
C         56.52250       36.89421       74.80761
O         57.61683       36.44810       74.15872
H         50.71661       39.17438       77.50980
H         51.64367       36.91879       76.05845
H         53.26098       38.92443       77.74990
H         52.61992       39.21676       76.10020
H         53.16700       37.14152       74.36214
H         55.59242       38.45442       77.68614
H         55.17458       36.29386       73.23631
H         57.59862       37.61543       76.53709
H         58.50737       36.54471       74.52487
N         52.37493       36.62651       79.36784
C         52.72871       35.64123       80.39852
C         51.87405       34.39041       80.28241
O         52.41759       33.29728       80.19892
C         52.56167       36.28801       81.79887
C         52.85301       35.33197       82.96949
C         52.71522       36.04338       84.28730
O         53.44123       36.98758       84.55575
O         51.79537       35.63708       85.18382
H         52.14760       37.58653       79.66579
H         53.79360       35.34258       80.27619
H         51.52118       36.66184       81.91251
H         53.25008       37.15912       81.86084
H         53.88199       34.92342       82.88674
H         52.13176       34.48567       82.94786
N         50.52301       34.49074       80.25867
C         49.61727       33.34784       80.16938
C         49.88639       32.54067       78.90690
O         50.16725       31.35488       79.01263
C         48.16300       33.85628       80.22819
C         47.87235       34.48527       81.60782
C         46.54785       35.17242       81.69814
O         46.22602       35.81800       82.83069
O         45.77349       35.18820       80.75939
H         50.12870       35.44281       80.29387
H         49.77362       32.67581       81.04381
H         47.44796       33.02350       80.05855
H         48.02353       34.61547       79.42859
H         48.63213       35.24663       81.85863
H         47.91973       33.70248       82.38618
N         49.85486       33.12349       77.68042
C         50.15707       32.40983       76.45992
H         51.18570       31.99294       76.50894
H         49.42459       31.59138       76.30439
H         50.10453       33.10696       75.59512
H         49.63348       34.11574       77.60790
Ca        43.29029       37.16392       82.15924
O         46.37002       39.58349       82.16325
H         46.95978       38.97880       82.67711
H         46.92114       40.39326       82.02221

Ca 1.0



