%chk=holoCaM-CaMKII.loop3.water2.frame498.chk
%nprocshared=20
%mem=10GB
%nosave
#b3lyp/svp scf=(tight,noincore,xqc) Test 
#IOP(5/87=12) Density=Current Pop=(MK,readradii) iop(6/33=2) iop(6/42=6)

holoCaM-CaMKII.loop3.water2.frame498 

   0  1 
C          6.79655       -0.98893       97.66373
C          7.53215        0.08373       96.91383
O          7.16772        1.24493       97.03263
H          5.73438       -1.00967       97.34462
H          7.24150       -1.99003       97.48009
H          6.84810       -0.78042       98.75329
N          8.60143       -0.23325       96.13214
C          9.39354        0.76683       95.42811
C          8.55074        1.47845       94.37403
O          8.04794        0.83743       93.46185
C         10.62257        0.09480       94.80288
C         11.60967        1.05731       94.22578
O         11.42616        2.38949       94.28610
O         12.61479        0.61329       93.70915
H          8.88794       -1.22323       96.07619
H          9.76374        1.48841       96.18903
H         10.29647       -0.61838       94.01543
H         11.15953       -0.47467       95.59260
N          8.31254        2.81211       94.49416
C          7.37136        3.55737       93.66482
C          7.88992        3.82012       92.24800
O          7.07484        3.98592       91.35207
C          7.01763        4.86619       94.41297
C          5.68120        5.50624       94.01568
C          5.34914        6.64135       95.00356
C          3.91574        7.15793       94.83835
N          3.61613        8.17795       95.84534
H          8.71813        3.28850       95.30718
H          6.44111        2.94719       93.62226
H          7.86011        5.59185       94.36143
H          6.88215        4.58414       95.48216
H          4.89309        4.72642       94.10839
H          5.69703        5.87753       92.96903
H          6.07862        7.47162       94.88059
H          5.43349        6.25290       96.04340
H          3.20699        6.30902       94.96937
H          3.77680        7.58117       93.82030
H          2.62451        8.49031       95.73627
H          3.73588        7.78257       96.80731
H          4.24969        9.00101       95.72505
N          9.23021        3.93509       91.99102
C          9.80503        4.24960       90.67232
C         10.79123        3.19497       90.16457
O         11.30837        3.37246       89.06930
C         10.47791        5.64509       90.69654
C         11.59769        5.80982       91.69521
O         12.11313        6.90586       91.83949
O         11.98173        4.78929       92.48378
H          9.86847        3.83101       92.78761
H          8.99467        4.30957       89.91223
H          9.69220        6.38976       90.95057
H         10.85955        5.89623       89.68217
N         11.07879        2.06185       90.86618
C         11.94840        1.00863       90.35887
C         13.43726        1.32535       90.32596
O         14.17830        0.44251       89.91574
H         10.59673        1.88225       91.75586
H         11.60429        0.71288       89.34307
H         11.83703        0.12032       91.01667
N         13.97258        2.51347       90.74187
C         15.41916        2.76780       90.71626
C         16.21419        1.84445       91.64289
O         17.42244        1.75286       91.47859
C         15.73852        4.25312       90.99853
C         15.28747        4.76942       92.34641
N         15.46126        6.07461       92.65316
O         14.75392        4.02836       93.15698
H         13.34231        3.26079       91.05454
H         15.76234        2.55986       89.67776
H         15.23159        4.86007       90.21813
H         16.83401        4.41949       90.90411
H         15.90045        6.71846       91.97944
H         15.14554        6.44651       93.55979
N         15.60196        1.12382       92.62248
C         16.25415        0.10316       93.42419
C         16.26661        0.39145       94.90913
O         16.60901       -0.52700       95.64235
H         14.60444        1.26862       92.78289
H         17.30058       -0.08356       93.10153
H         15.68691       -0.83970       93.26170
N         15.98138        1.62119       95.43950
C         16.06697        1.88656       96.87666
C         14.79374        2.50956       97.42436
O         13.87971        2.80001       96.66298
C         17.34604        2.69545       97.17891
C         17.35898        4.11544       96.67111
C         16.73866        5.13278       97.41466
C         18.04541        4.44936       95.49153
C         16.80894        6.46091       96.98957
C         18.09691        5.77792       95.05718
C         17.48105        6.78933       95.80865
O         17.53276        8.07654       95.41103
H         15.77289        2.40780       94.80971
H         16.19458        0.92594       97.42200
H         18.19265        2.13324       96.72564
H         17.55858        2.71604       98.26961
H         16.22290        4.90443       98.33784
H         18.53894        3.68267       94.90740
H         16.34045        7.23681       97.58202
H         18.62379        6.02130       94.14326
H         17.99016        8.34788       94.60256
N         14.66285        2.69784       98.76815
C         13.45723        3.19286       99.42404
C         13.78808        4.44964      100.21179
O         14.72130        4.42633      101.00444
C         12.89986        2.09430      100.37939
C         12.63211        0.74512       99.65903
C         11.63451        2.57087      101.12109
C         11.58242        0.79306       98.54335
H         15.45210        2.42809       99.37654
H         12.66361        3.43006       98.68270
H         13.67270        1.88629      101.15362
H         12.29896        0.00109      100.41525
H         13.58255        0.36572       99.22644
H         11.85076        3.46810      101.73530
H         10.82235        2.82605      100.41134
H         11.27290        1.78039      101.81202
H         10.59316        1.11128       98.92902
H         11.89334        1.47373       97.72753
H         11.46685       -0.22309       98.11201
N         13.00281        5.55873      100.10421
C         13.19645        6.76686      100.90122
C         12.09069        6.89520      101.93776
O         11.21401        6.04735      101.98554
C         13.23705        7.99214       99.97255
O         12.01258        8.12856       99.29961
H         12.18410        5.52208       99.47898
H         14.15686        6.71776      101.45919
H         14.05531        7.86843       99.23090
H         13.44576        8.90379      100.57682
H         11.94933        9.07525       99.00892
N         12.07831        7.93212      102.82047
C         11.03634        8.11826      103.82872
C          9.67215        8.26655      103.18155
O          8.74592        7.57487      103.57992
C         11.33659        9.35727      104.67829
H         12.84393        8.62212      102.77222
H         11.02408        7.24512      104.52016
H         10.55604        9.48116      105.45990
H         12.31794        9.23681      105.18509
H         11.36671       10.27315      104.05074
N          9.49686        9.13049      102.14200
C          8.22808        9.32523      101.44469
C          7.64314        8.00991      100.96992
O          6.48299        7.74170      101.25023
C          8.43414       10.25421      100.24117
H         10.32272        9.65248      101.80929
H          7.50058        9.81252      102.13128
H          9.15604        9.81091       99.52076
H          7.46917       10.42607       99.71810
H          8.82941       11.23535      100.57951
N          8.40766        7.12693      100.27228
C          7.91592        5.84002       99.78642
C          7.35119        5.01111      100.92690
O          6.18102        4.65858      100.87093
C          9.04642        5.07452       99.06365
C          9.47172        5.80557       97.78212
C         10.58760        5.11720       97.05881
O         10.47637        3.95469       96.71557
O         11.65735        5.82304       96.65309
H          9.39205        7.38240      100.10448
H          7.09404        6.01619       99.05456
H          8.68047        4.06284       98.77736
H          9.91185        4.95430       99.74633
H          9.78674        6.84911       97.98585
H          8.59387        5.84339       97.10088
N          8.11654        4.68730      102.00403
C          7.62777        3.93608      103.14155
H          6.56439        3.63782      103.02927
H          8.24111        3.02018      103.26780
H          7.72016        4.55992      104.05569
H          9.09141        5.00098      102.03527
Ca        12.46014        5.15759       94.65471
O         10.58843        7.64380       94.33370
H         11.42882        8.08148       94.04709
H         10.52706        7.84595       95.30025
O         13.97878        7.34034       96.34812
H         13.59071        7.97922       95.70070
H         14.37479        6.62894       95.78562

Ca 1.0



