%chk=holoCaM-CaMKII.loop3.water1.frame378.chk
%nprocshared=20
%mem=10GB
%nosave
#b3lyp/svp scf=(tight,noincore,xqc) Test 
#IOP(5/87=12) Density=Current Pop=(MK,readradii) iop(6/33=2) iop(6/42=6)

holoCaM-CaMKII.loop3.water1.frame378 

   0  1 
C         75.38402       73.54215       53.93290
C         75.93050       74.66593       53.10292
O         77.09734       74.99835       53.25263
H         74.31684       73.34411       53.69577
H         75.96773       72.61840       53.74555
H         75.45574       73.81266       55.00765
N         75.12220       75.32562       52.22922
C         75.54740       76.47624       51.43930
C         74.83259       77.69899       52.00791
O         73.95120       77.53690       52.84327
C         75.20762       76.15919       49.95911
C         75.68123       77.05545       48.84007
O         76.51242       78.10252       49.00402
O         75.31866       76.78293       47.70629
H         74.13341       75.03532       52.15702
H         76.64152       76.63266       51.55405
H         74.10066       76.08396       49.88244
H         75.62747       75.15625       49.72318
N         75.19519       78.95877       51.65392
C         74.57322       80.15913       52.20217
C         73.78080       80.91089       51.14122
O         73.18257       81.92524       51.47043
C         75.63014       81.00319       52.94409
C         76.77392       81.54376       52.06643
C         77.89749       82.18230       52.90499
C         77.48179       83.37943       53.77581
N         76.98225       84.49598       52.97444
H         75.95130       79.08038       50.97779
H         73.81990       79.88472       52.97327
H         76.06665       80.35276       53.73479
H         75.11681       81.85115       53.44479
H         76.37276       82.25932       51.31872
H         77.25572       80.71470       51.51230
H         78.70355       82.51319       52.21894
H         78.32435       81.40062       53.57231
H         78.37907       83.71570       54.34149
H         76.71836       83.07653       54.52390
H         76.78367       85.30376       53.60751
H         77.70284       84.78515       52.27366
H         76.09608       84.23143       52.48872
N         73.63180       80.40014       49.88169
C         72.69978       80.93751       48.89252
C         72.45628       79.93679       47.75555
O         73.13689       78.92481       47.65518
C         73.10939       82.34798       48.39529
C         74.48059       82.43937       47.78386
O         75.20630       81.46520       47.71132
O         74.92593       83.62699       47.33268
H         74.11319       79.52342       49.65446
H         71.71120       81.02535       49.39631
H         73.08723       83.05761       49.24755
H         72.36579       82.70406       47.65162
N         71.39593       80.11390       46.92233
C         70.95203       79.10813       45.96635
C         71.82621       78.91986       44.74186
O         71.40724       78.16924       43.87159
H         70.79732       80.94350       47.05430
H         69.95849       79.42970       45.58415
H         70.80603       78.13659       46.48754
N         73.00008       79.58888       44.55215
C         73.70345       79.57764       43.26723
C         74.17194       78.19921       42.79698
O         74.45931       78.08072       41.61404
C         74.86379       80.60964       43.27601
C         76.12110       80.16088       44.06182
N         77.06233       79.50800       43.16181
O         75.73734       79.24658       45.04477
H         73.34064       80.21851       45.29160
H         72.95116       79.93885       42.52983
H         74.47264       81.54882       43.72280
H         75.15464       80.86657       42.23379
H         77.38154       80.20752       42.45185
H         77.90103       79.23857       43.71970
N         74.28865       77.12417       43.63921
C         74.61613       75.78567       43.16019
C         75.93966       75.21966       43.63961
O         76.21582       74.09106       43.25612
H         74.10265       77.23720       44.64676
H         74.65119       75.75737       42.05100
H         73.80068       75.09927       43.47633
N         76.80870       75.88684       44.45918
C         78.08367       75.28327       44.87608
C         78.73549       76.00393       46.04100
O         78.30883       77.09227       46.39686
C         79.06112       75.17499       43.67023
C         79.42535       76.51227       43.04370
C         80.26261       77.42971       43.70881
C         78.94438       76.84341       41.76314
C         80.60276       78.64776       43.10914
C         79.28047       78.06477       41.16896
C         80.10935       78.97056       41.83750
O         80.42236       80.14383       41.25031
H         76.53784       76.81235       44.81581
H         77.85437       74.26674       45.26663
H         78.58244       74.53751       42.90028
H         79.99560       74.64774       43.95863
H         80.66858       77.20540       44.68495
H         78.30080       76.16027       41.22360
H         81.25012       79.33980       43.63344
H         78.89475       78.30818       40.18670
H         80.98923       80.80085       41.67926
N         79.77696       75.41898       46.70882
C         80.45333       76.06129       47.83235
C         81.94203       76.19919       47.58375
O         82.49967       75.53324       46.72201
C         80.19665       75.31772       49.18116
C         80.75500       73.86887       49.17449
C         78.69955       75.35425       49.51986
C         80.63637       73.16083       50.52710
H         80.08688       74.47912       46.41861
H         80.06347       77.09305       47.94917
H         80.72429       75.88201       49.98330
H         81.83743       73.90092       48.92698
H         80.23930       73.25556       48.40584
H         78.49756       74.93214       50.52424
H         78.35822       76.40737       49.54533
H         78.10616       74.79422       48.76657
H         81.11050       72.15882       50.46079
H         81.15461       73.74553       51.31690
H         79.57698       73.00789       50.81542
N         82.64107       77.07937       48.34474
C         84.08129       77.26664       48.31215
C         84.61573       77.14047       49.73315
O         83.84925       76.84119       50.63984
C         84.37610       78.66819       47.74578
O         83.91585       78.76769       46.42372
H         82.11284       77.67663       48.99579
H         84.58126       76.51754       47.65957
H         85.46787       78.86324       47.72958
H         83.92070       79.46315       48.38178
H         82.96351       79.04354       46.46665
N         85.92097       77.39942       50.01542
C         86.42445       77.47896       51.38238
C         85.71604       78.59488       52.13642
O         85.26792       78.36599       53.24977
C         87.93229       77.74135       51.38230
H         86.56635       77.60402       49.23783
H         86.26633       76.50808       51.90487
H         88.17250       78.69947       50.87540
H         88.30780       77.78147       52.42800
H         88.45528       76.91314       50.85834
N         85.57673       79.83428       51.57894
C         84.93139       80.95484       52.26242
C         83.44254       80.75100       52.56032
O         82.89191       81.59850       53.25020
C         85.10231       82.23751       51.43630
H         85.98091       79.99244       50.64259
H         85.45978       81.10296       53.23046
H         84.67929       83.11278       51.97443
H         86.18118       82.43351       51.25735
H         84.58942       82.13694       50.45508
N         82.72293       79.68331       52.09623
C         81.30951       79.46654       52.41847
C         81.09210       78.19009       53.22653
O         79.96211       77.95851       53.63509
C         80.46277       79.38553       51.13238
C         80.58262       80.63549       50.25326
C         79.71790       80.50762       49.03218
O         79.92478       79.61804       48.22330
O         78.71339       81.37879       48.81960
H         83.18180       78.99935       51.48694
H         80.92478       80.30511       53.03915
H         79.39332       79.24994       51.40999
H         80.77490       78.49441       50.55273
H         81.63534       80.78394       49.93068
H         80.26503       81.52328       50.83565
N         82.10293       77.31245       53.49326
C         81.93192       76.09454       54.25810
H         82.61468       76.11586       55.13351
H         80.89326       75.96324       54.62519
H         82.19498       75.22339       53.62173
H         83.04607       77.48642       53.13702
Ca        76.70149       79.30121       47.09776
O         79.01144       80.86830       45.56928
H         79.05658       81.84785       45.43457
H         79.95542       80.57052       45.55815

Ca 1.0



