%chk=holoCaM-CaMKII.loop3.water2.frame43.chk
%nprocshared=20
%mem=10GB
%nosave
#b3lyp/svp scf=(tight,noincore,xqc) Test 
#IOP(5/87=12) Density=Current Pop=(MK,readradii) iop(6/33=2) iop(6/42=6)

holoCaM-CaMKII.loop3.water2.frame43 

   0  1 
C         11.95929       60.85436        6.95231
C         12.11942       59.36530        6.94797
O         11.23678       58.68205        6.44972
H         11.04273       61.11981        7.52042
H         12.82732       61.35288        7.43252
H         11.86549       61.22173        5.91014
N         13.20549       58.78785        7.53214
C         13.38891       57.35037        7.62726
C         13.09789       56.93866        9.05351
O         13.62858       57.52994        9.98321
C         14.79255       56.94219        7.13815
C         14.97659       55.44623        7.15424
O         16.02597       54.89168        7.78630
O         14.18532       54.72625        6.57026
H         13.90142       59.39119        7.99749
H         12.66961       56.82667        6.95792
H         15.58454       57.42819        7.74740
H         14.90394       57.28057        6.08519
N         12.22784       55.91753        9.27602
C         11.76006       55.45735       10.58018
C         12.89839       55.31010       11.57449
O         12.81195       55.87756       12.65456
C         11.00782       54.12259       10.36056
C         10.41316       53.48011       11.61780
C          9.69808       52.17482       11.22990
C          9.11486       51.45222       12.44777
N          8.45403       50.21001       12.04380
H         11.87884       55.41845        8.44404
H         11.04348       56.20329       10.99057
H         11.70985       53.39733        9.89948
H         10.17842       54.30599        9.64033
H          9.69118       54.17952       12.09199
H         11.22745       53.25191       12.33897
H         10.42389       51.49465       10.73214
H          8.87748       52.40280       10.51322
H          8.37922       52.11253       12.95759
H          9.93403       51.21464       13.16217
H          8.07350       49.73089       12.89140
H          7.66494       50.41727       11.38897
H          9.13886       49.57243       11.57548
N         13.99922       54.57712       11.26563
C         15.10691       54.34292       12.19520
C         16.44587       54.91903       11.70733
O         17.43199       54.74656       12.41092
C         15.20377       52.82829       12.50033
C         15.52866       51.99549       11.29575
O         15.67609       50.78904       11.39533
O         15.69309       52.59800       10.11225
H         14.02665       54.16078       10.32618
H         14.90280       54.83832       13.16945
H         14.23664       52.48133       12.92331
H         15.99537       52.66398       13.26298
N         16.55803       55.66389       10.56611
C         17.79480       56.33561       10.17887
C         18.93673       55.44322        9.71172
O         20.03466       55.97298        9.60327
H         15.71673       55.86880       10.01437
H         18.14203       56.92877       11.05455
H         17.59302       57.06188        9.36223
N         18.79650       54.11479        9.40672
C         19.95620       53.27309        9.07955
C         20.70212       53.67479        7.80141
O         21.75672       53.10842        7.55216
C         19.59647       51.75658        9.05672
C         19.27631       51.11453        7.68248
N         18.93590       49.70433        7.82875
O         18.27858       51.75991        6.95826
H         17.86873       53.68339        9.49113
H         20.64538       53.40319        9.94522
H         18.81384       51.53916        9.81723
H         20.50562       51.20986        9.38763
H         19.73629       49.20360        8.27514
H         18.80768       49.29832        6.87422
N         20.20085       54.60277        6.93036
C         20.83963       54.97758        5.67253
C         19.96933       54.64624        4.46495
O         20.35393       54.99303        3.35632
H         19.30436       55.06249        7.13818
H         21.81910       54.46705        5.54067
H         21.02924       56.07092        5.69740
N         18.81983       53.92507        4.59723
C         17.97373       53.45844        3.50222
C         16.51325       53.62748        3.86581
O         16.15352       53.31271        4.99434
C         18.18965       51.94746        3.32874
C         19.60088       51.62245        2.93237
C         20.45085       50.97951        3.84346
C         20.07807       51.95170        1.65318
C         21.76357       50.67362        3.48510
C         21.38960       51.63222        1.29102
C         22.23753       50.99321        2.20875
O         23.50532       50.68022        1.87632
H         18.56720       53.59148        5.53132
H         18.21517       53.95783        2.53639
H         17.49962       51.53293        2.55964
H         17.94609       51.45438        4.29257
H         20.10018       50.72527        4.83544
H         19.43211       52.44193        0.93430
H         22.41044       50.18510        4.20181
H         21.74443       51.88012        0.29857
H         23.87055       50.87665        1.00225
N         15.59245       53.99083        2.93197
C         14.15918       54.02751        3.21083
C         13.42597       53.00260        2.35323
O         13.61156       52.98335        1.14339
C         13.59919       55.47066        3.07945
C         12.15254       55.51481        3.63956
C         13.68820       56.02552        1.64555
C         11.56917       56.92144        3.72169
H         15.91755       54.20194        1.97582
H         13.98030       53.74975        4.26904
H         14.22630       56.11717        3.73436
H         12.16330       55.11399        4.67764
H         11.47630       54.87733        3.03225
H         13.37217       57.08704        1.61590
H         14.73261       56.00087        1.27606
H         13.04103       55.44970        0.95297
H         10.57563       56.87507        4.21336
H         12.23675       57.57335        4.32200
H         11.42941       57.35905        2.71374
N         12.53512       52.14313        2.92760
C         11.75203       51.15292        2.19360
C         10.29733       51.58693        2.12913
O          9.97914       52.65400        2.62545
C         11.90117       49.77556        2.86695
O         11.36477       49.78761        4.16514
H         12.34988       52.23682        3.93592
H         12.11284       51.06787        1.14557
H         12.97338       49.46980        2.88031
H         11.36910       48.99577        2.28417
H         12.11977       49.92627        4.79314
N          9.35821       50.83234        1.49525
C          7.95755       51.23547        1.37729
C          7.27779       51.33750        2.73178
O          6.72352       52.38342        3.03718
C          7.18805       50.24387        0.50047
H          9.65793       49.94973        1.05233
H          7.90657       52.22398        0.86630
H          6.13241       50.57476        0.39193
H          7.64590       50.20468       -0.51053
H          7.20259       49.22449        0.94057
N          7.27927       50.27935        3.59205
C          6.61198       50.29174        4.89276
C          7.07099       51.46108        5.74206
O          6.22707       52.16315        6.28225
C          6.85669       48.96787        5.62696
H          7.78755       49.42742        3.30848
H          5.51252       50.37811        4.74116
H          7.93977       48.80818        5.81363
H          6.31726       48.96284        6.59884
H          6.46969       48.12311        5.01645
N          8.39356       51.76390        5.85582
C          8.88717       52.91484        6.60993
C          8.26000       54.20384        6.09348
O          7.64764       54.91868        6.87454
C         10.43051       52.98974        6.55135
C         11.07544       51.77536        7.24804
C         12.57426       51.86793        7.29173
O         13.22462       51.90098        6.26115
O         13.21328       51.87733        8.47619
H          9.06659       51.16897        5.34931
H          8.60269       52.80219        7.68038
H         10.75799       53.90741        7.08210
H         10.77200       53.06123        5.49634
H         10.79904       50.83377        6.73281
H         10.69489       51.71866        8.28901
N          8.33634       54.54222        4.77993
C          7.71257       55.72767        4.23374
H          6.61814       55.70421        4.42305
H          8.15166       56.63707        4.69238
H          7.87578       55.76616        3.13437
H          8.82833       53.92052        4.13711
Ca        16.49126       51.70933        8.27530
O         15.82282       50.07618        5.51174
H         15.31827       49.26007        5.75424
H         16.76736       49.78164        5.49172
O         15.91699       48.79840        8.47063
H         16.27363       49.15038        9.32434
H         14.98416       48.54087        8.67804

Ca 1.0



