%chk=holoCaM-CaMKII.loop4.water1.frame324.chk
%nprocshared=20
%mem=10GB
%nosave
#b3lyp/svp scf=(tight,noincore,xqc) Test 
#IOP(5/87=12) Density=Current Pop=(MK,readradii) iop(6/33=2) iop(6/42=6)

holoCaM-CaMKII.loop4.water1.frame324 

   -3  1 
C         46.45961       59.20719       87.86208
C         46.42953       60.67176       88.18762
O         46.87290       61.47842       87.38636
H         45.83476       59.02579       86.96343
H         47.49906       58.87116       87.67638
H         46.04118       58.60239       88.69660
N         45.90548       61.07899       89.36847
C         45.69390       62.46298       89.75395
C         46.81899       62.96835       90.66338
O         47.14404       62.34692       91.66411
C         44.29727       62.54659       90.39743
C         44.13676       63.73371       91.26275
O         43.94322       63.53450       92.57780
O         44.24889       64.85812       90.81566
H         45.56551       60.35283       90.01762
H         45.66239       63.12795       88.85981
H         44.13795       61.68153       91.07070
H         43.51141       62.51730       89.61214
N         47.38970       64.17318       90.36486
C         48.46434       64.85699       91.07475
C         47.91496       66.00987       91.94948
O         48.57359       66.37002       92.91469
C         49.48477       65.36091       89.98787
C         50.02031       64.21229       89.08161
C         50.64756       66.19264       90.54847
C         50.65015       63.04482       89.84440
H         47.02916       64.65981       89.54712
H         48.95058       64.14928       91.78004
H         48.94018       66.05799       89.30841
H         50.76752       64.62615       88.36702
H         49.19171       63.79724       88.46750
H         51.29090       65.60039       91.22578
H         51.26561       66.57769       89.70512
H         50.26448       67.08520       91.08386
H         51.04382       62.29862       89.12259
H         51.48166       63.38588       90.49217
H         49.88468       62.53216       90.46251
N         46.73417       66.63920       91.67030
C         46.14602       67.73787       92.45864
C         45.60192       67.28187       93.81560
O         45.70868       67.99916       94.79967
C         44.90853       68.31005       91.71321
C         45.19329       68.79090       90.32325
O         44.64122       68.19660       89.23084
O         45.93804       69.74734       90.16637
H         46.23690       66.35357       90.81872
H         46.88527       68.56135       92.58428
H         44.49462       69.16852       92.29330
H         44.12591       67.53221       91.64317
N         44.84587       66.15805       93.85695
C         43.99101       65.71049       94.94427
C         42.54717       66.13762       94.71633
O         41.90206       66.59899       95.64575
H         44.80584       65.62594       92.99283
H         44.38355       65.97472       95.94809
H         43.97582       64.59954       94.90501
N         41.97995       65.98069       93.48579
C         40.57660       66.22492       93.14319
C         39.92126       64.97105       92.53639
O         38.73228       65.01777       92.25491
C         40.47686       67.44382       92.18695
C         41.33470       67.33624       90.96470
O         41.66745       68.33669       90.35243
O         41.80610       66.15153       90.57996
H         42.59655       65.66595       92.73271
H         39.99985       66.48801       94.05623
H         40.83249       68.33352       92.74452
H         39.42697       67.64058       91.87329
N         40.61989       63.81298       92.32191
C         40.04917       62.59679       91.76014
C         39.62886       62.73006       90.30594
O         38.78145       61.96461       89.86982
H         41.60299       63.75554       92.58996
H         39.19871       62.26719       92.39212
H         40.81474       61.78861       91.79809
N         40.22580       63.64053       89.48590
C         39.94618       63.80065       88.06138
C         41.21533       64.09239       87.20407
O         42.37147       64.18996       88.01903
C         38.81869       64.80738       87.78280
C         38.85339       66.16633       88.50190
C         39.86094       67.18635       88.03630
N         39.64932       68.49307       88.32345
O         40.84085       66.86436       87.38539
H         40.96835       64.20353       89.88866
H         39.51548       62.83843       87.69408
H         37.88068       64.32250       88.12824
H         38.71586       64.96201       86.68350
H         38.91301       66.03769       89.60434
H         37.86210       66.61368       88.28185
H         38.80554       68.78592       88.83940
H         40.30916       69.21863       88.00781
N         41.34723       62.96681       86.24540
C         42.48924       63.01710       85.33045
C         42.19301       63.98955       84.19695
O         41.26554       63.73980       83.43609
C         42.79515       61.58491       84.76176
C         44.26204       61.48856       84.31413
C         42.51183       60.46687       85.78172
H         40.46546       62.80076       85.70226
H         43.37179       63.32832       85.92116
H         42.13403       61.36101       83.89334
H         44.48716       60.47658       83.91313
H         44.48950       62.23567       83.52880
H         44.92971       61.66124       85.18613
H         43.07605       60.62596       86.72288
H         41.42351       60.42869       86.00849
H         42.77712       59.47465       85.35488
N         42.95357       65.10219       84.00629
C         42.80102       65.97552       82.85899
C         43.76781       65.50743       81.79005
O         44.45882       64.52906       82.01400
C         42.94522       67.48001       83.24520
C         44.34912       68.04273       83.38447
N         45.11307       67.82734       84.47514
O         44.77384       68.77728       82.50634
H         43.76411       65.25227       84.59885
H         41.77319       65.86404       82.44723
H         42.34384       67.72170       84.14963
H         42.48566       68.04894       82.41080
H         44.75487       67.28790       85.26659
H         46.05045       68.25526       84.54708
N         43.86938       66.14094       80.59852
C         44.81817       65.74535       79.55871
C         46.26068       65.74859       80.07108
O         46.98727       64.80199       79.80279
C         44.67502       66.71747       78.37076
C         45.72440       66.47089       77.32031
C         45.77646       65.25384       76.62288
C         46.68893       67.45795       77.06341
C         46.79405       65.02312       75.69371
C         47.70448       67.22497       76.13676
C         47.76680       66.00601       75.45457
O         48.76829       65.78705       74.58049
H         43.25763       66.95448       80.43485
H         44.58234       64.71722       79.19977
H         44.77928       67.75338       78.76157
H         43.65997       66.62447       77.92616
H         45.03973       64.48159       76.80714
H         46.66707       68.40129       77.59615
H         46.83121       64.07740       75.16867
H         48.44989       67.98979       75.96075
H         48.86498       64.94528       74.11354
N         46.75072       66.81100       80.76160
C         48.14114       66.92212       81.20786
C         48.51184       65.88847       82.27144
O         49.69056       65.60658       82.43763
C         48.43431       68.34039       81.73067
C         48.10585       69.42128       80.68215
C         48.49697       70.77551       81.18276
O         47.55361       71.70733       81.41772
O         49.67203       71.04042       81.37766
H         46.10104       67.58195       80.93189
H         48.78879       66.74883       80.31923
H         49.51149       68.40280       81.99913
H         47.83050       68.53411       82.64605
H         47.01707       69.43863       80.47147
H         48.63291       69.21686       79.72530
N         47.55621       65.29239       83.03367
C         47.80729       64.16738       83.93446
C         47.77405       62.86096       83.16345
O         48.43009       61.91222       83.56880
C         46.73023       64.14991       85.02506
C         46.96499       65.31296       85.99271
C         45.87414       65.45663       86.98093
O         46.12041       66.13608       88.10876
O         44.72400       65.27495       86.63889
H         46.58081       65.59503       82.90689
H         48.79790       64.25931       84.43595
H         46.75287       63.20906       85.60737
H         45.73551       64.21352       84.53574
H         47.05326       66.27392       85.45271
H         47.90897       65.13888       86.55008
N         47.03584       62.74768       82.02902
C         46.96078       61.55212       81.22872
H         46.35365       61.76108       80.31946
H         47.97778       61.24751       80.90892
H         46.47002       60.74155       81.80418
H         46.50285       63.54986       81.70461
Ca        43.51562       66.20214       88.66824
O         43.35301       68.60716       86.99770
H         44.21207       69.09793       86.94127
H         42.66845       69.26575       86.72973

Ca 1.0



