%chk=holoCaM-CaMKII.loop1.water2.frame476.chk
%nprocshared=20
%mem=10GB
%nosave
#b3lyp/svp scf=(tight,noincore,xqc) Test 
#IOP(5/87=12) Density=Current Pop=(MK,readradii) iop(6/33=2) iop(6/42=6)

holoCaM-CaMKII.loop1.water2.frame476 

   0  1 
C         73.57792       75.29975       65.94528
C         73.42079       76.69698       66.46278
O         73.03160       77.57517       65.70613
H         74.63299       74.97558       66.06434
H         72.91746       74.61606       66.51884
H         73.30495       75.24441       64.86978
N         73.70485       76.97366       67.76599
C         73.56420       78.30651       68.34041
C         74.51431       79.26001       67.63228
O         75.71930       79.05517       67.69577
C         73.83845       78.24397       69.85649
C         73.57708       79.52390       70.59113
O         73.75194       79.55196       71.92291
O         73.18527       80.52384       70.01290
H         74.01568       76.19581       68.36956
H         72.50697       78.62687       68.19843
H         74.89080       77.93312       70.03484
H         73.16876       77.47719       70.30257
N         74.02369       80.27831       66.86779
C         74.85607       81.00892       65.91541
C         75.52214       82.24848       66.51511
O         76.43579       82.76811       65.89029
C         74.01299       81.35059       64.65499
C         74.80791       81.46951       63.33965
C         75.01410       80.12128       62.59979
C         75.80117       79.04229       63.35852
N         75.96014       77.83756       62.54394
H         73.00281       80.33692       66.78166
H         75.67682       80.32958       65.63115
H         73.47374       82.29911       64.87203
H         73.22831       80.58324       64.47049
H         75.75827       82.02099       63.49230
H         74.18751       82.07203       62.63981
H         75.53969       80.33961       61.64498
H         74.01506       79.70115       62.34569
H         75.24860       78.75044       64.27514
H         76.80413       79.43834       63.63086
H         76.50545       77.12900       63.08668
H         75.02244       77.43307       62.31558
H         76.47506       78.05911       61.66153
N         75.11838       82.78480       67.70787
C         75.78727       83.91572       68.36373
C         76.26512       83.55370       69.76835
O         76.83636       84.41102       70.42845
C         74.87583       85.16978       68.40130
C         73.64858       85.06960       69.26749
O         72.85599       85.99707       69.29838
O         73.36518       83.94365       69.93735
H         74.30248       82.37108       68.17389
H         76.68409       84.21260       67.77825
H         74.55822       85.39890       67.36052
H         75.46765       86.03393       68.77305
N         76.06910       82.31047       70.29676
C         76.48087       81.93434       71.63369
C         75.71599       82.68000       72.70151
O         76.34349       83.29882       73.54891
H         75.62851       81.57000       69.73632
H         77.57697       82.08418       71.74626
H         76.27209       80.85206       71.77786
N         74.35195       82.62341       72.74585
C         73.55689       83.18518       73.83595
C         72.76171       82.08566       74.53688
O         71.68097       82.34771       75.04797
C         72.67285       84.35402       73.33947
C         71.60940       84.00035       72.32994
O         70.88384       84.88203       71.90035
O         71.44199       82.74088       71.88654
H         73.86044       82.11959       71.99647
H         74.22801       83.62147       74.60700
H         73.33607       85.12384       72.88870
H         72.16671       84.81296       74.21642
N         73.26683       80.82101       74.61934
C         72.61178       79.71176       75.29502
C         71.31142       79.22381       74.67476
O         70.78569       78.25478       75.20643
H         74.19828       80.63020       74.22265
H         72.43252       79.98645       76.35695
H         73.30988       78.84606       75.28429
N         70.70874       79.81674       73.59897
C         69.43568       79.34953       73.04705
C         69.49905       79.14947       71.53784
O         70.44652       79.58056       70.89425
C         68.29400       80.33273       73.40932
C         68.00624       80.36207       74.91779
O         68.56754       81.62566       72.93077
H         71.13222       80.64972       73.17715
H         69.17613       78.35893       73.48177
H         67.35358       79.98580       72.92873
H         69.24389       82.04353       73.52553
H         68.89361       80.70523       75.48993
H         67.16223       81.05459       75.12316
H         67.72091       79.34792       75.26982
N         68.50652       78.44450       70.92140
C         68.43649       78.16133       69.48888
C         67.04694       78.54969       68.99178
O         66.06965       78.11950       69.59185
C         68.71301       76.64907       69.22865
C         70.11020       76.25658       69.78524
C         68.62818       76.34542       67.71545
C         70.43475       74.76606       69.66599
H         67.77161       78.03200       71.51852
H         69.21630       78.72731       68.93129
H         67.93936       76.04876       69.75739
H         70.15436       76.49822       70.86801
H         70.90192       76.84090       69.26787
H         68.76266       75.26558       67.50981
H         67.63169       76.61293       67.30885
H         69.40282       76.91654       67.15886
H         69.66565       74.16282       70.19333
H         70.50032       74.44271       68.60819
H         71.42230       74.56802       70.13407
N         66.87950       79.31429       67.87473
C         65.57209       79.71999       67.36060
C         65.26210       79.03089       66.04155
O         66.09426       78.30288       65.51788
C         65.51428       81.26331       67.18665
C         65.72208       82.00474       68.51110
O         66.43315       81.69722       66.21160
H         67.71119       79.59588       67.34554
H         64.77013       79.41642       68.06852
H         64.50512       81.55806       66.83142
H         67.31643       81.83160       66.64096
H         66.71698       81.75648       68.92587
H         65.66669       83.10166       68.34087
H         64.94097       81.71449       69.24368
N         64.04652       79.22291       65.45456
C         63.65913       78.66175       64.16029
C         64.56903       79.17487       63.05746
O         64.92592       78.40291       62.17935
C         62.18338       78.98435       63.82853
C         61.23076       78.29609       64.81893
O         61.97963       80.37456       63.84118
H         63.36580       79.81494       65.95333
H         63.74867       77.55183       64.19541
H         61.96724       78.58249       62.81107
H         61.08673       80.53893       63.44004
H         61.38375       77.19572       64.79140
H         61.39274       78.65104       65.85751
H         60.17731       78.50559       64.53909
N         65.04324       80.45252       63.08835
C         66.04634       80.96592       62.15911
C         67.28646       80.08958       62.20475
O         67.72693       79.60796       61.17027
C         66.41026       82.42166       62.56313
C         67.55528       83.04064       61.74112
C         67.86962       84.46092       62.23592
C         69.07128       85.06198       61.49366
N         69.36125       86.41302       61.97542
H         64.72347       81.06920       63.85132
H         65.63992       80.97407       61.12344
H         66.72159       82.43491       63.63033
H         65.50168       83.05564       62.46729
H         67.28025       83.06565       60.66475
H         68.47095       82.42197       61.86386
H         68.10956       84.42722       63.32211
H         66.97763       85.10812       62.08837
H         68.85874       85.09851       60.40255
H         69.96497       84.41841       61.65699
H         68.54288       87.04038       61.80056
H         69.57773       86.39364       62.99879
H         70.19145       86.78961       61.46318
N         67.91622       79.87972       63.38970
C         69.19407       79.18497       63.51832
C         69.08232       77.68453       63.27443
O         70.11518       77.03034       63.23504
C         69.78451       79.45764       64.91852
C         69.95396       80.97420       65.14623
C         70.35293       81.31292       66.54005
O         71.41875       82.08784       66.73720
O         69.67292       80.97723       67.49399
H         67.48511       80.29654       64.22556
H         69.89735       79.61546       62.77007
H         70.77143       78.95944       65.03439
H         69.09272       79.03118       65.67284
H         69.01253       81.52505       64.97982
H         70.69887       81.37807       64.42663
N         67.87611       77.06599       63.11679
C         67.72058       75.64769       62.86889
H         67.16909       75.50404       61.91562
H         68.69293       75.11863       62.79507
H         67.13045       75.19417       63.69281
H         67.01020       77.60875       63.18586
Ca        71.87268       82.78559       68.79321
O         68.53984       82.77094       70.37206
H         68.92122       83.62691       70.68599
H         67.65046       82.73138       70.80580
O         69.35555       84.37631       67.83936
H         70.24040       84.74429       67.59022
H         68.89591       85.12482       68.29591

Ca 1.0



