%chk=holoCaM.loop2.water2.frame458.chk
%nprocshared=20
%mem=10GB
%nosave
#b3lyp/svp scf=(tight,noincore,xqc) Test 
#IOP(5/87=12) Density=Current Pop=(MK,readradii) iop(6/33=2) iop(6/42=6)

holoCaM.loop2.water2.frame458 

   -2  1 
C         10.25139       94.98540       57.53441
C         10.37549       96.33135       56.88755
O         11.31999       96.55121       56.14819
H          9.30489       94.50589       57.21026
H         11.10309       94.33077       57.25005
H         10.24525       95.10082       58.63893
N          9.45779       97.29895       57.15319
C          9.50904       98.64306       56.59492
C          9.90549       99.59358       57.71367
O          9.09347       99.96072       58.55011
C          8.15976       98.94965       55.90477
C          7.84103      100.39753       55.62459
O          6.85626      100.86314       56.16540
O          8.54813      101.19587       54.79656
H          8.70548       97.08430       57.82635
H         10.29805       98.71651       55.81336
H          7.35729       98.59100       56.58682
H          8.07761       98.35402       54.97155
N         11.21268       99.96697       57.79349
C         11.80593      100.85696       58.77890
C         11.17363      102.23578       58.76780
O         10.77732      102.69464       59.82990
C         13.31678      100.98825       58.50249
H         11.85326       99.53541       57.12151
H         11.69399      100.40931       59.79106
H         13.80192       99.98795       58.53774
H         13.50252      101.42533       57.49706
H         13.80289      101.63485       59.26281
N         11.05791      102.96533       57.61773
C         10.57138      104.34669       57.61035
C          9.06480      104.47932       57.40804
O          8.59166      105.60793       57.38905
C         11.39298      105.23011       56.64612
C         11.23146      104.91152       55.18632
O         10.44924      103.89798       54.77325
O         11.81363      105.59467       54.35947
H         11.36065      102.53728       56.73004
H         10.76444      104.79299       58.61178
H         12.46962      105.15240       56.91364
H         11.08497      106.28855       56.79566
N          8.23004      103.40033       57.36346
C          6.78273      103.56015       57.43445
C          6.10102      104.03014       56.16103
O          4.93805      104.39478       56.26085
H          8.61926      102.45215       57.45438
H          6.55914      104.27352       58.25724
H          6.30465      102.60835       57.74380
N          6.69578      103.99061       54.92972
C          6.00358      104.42814       53.71008
C          5.24076      103.30346       52.99542
O          4.69761      103.54813       51.92722
C          6.95040      105.22267       52.78469
C          7.94384      104.37899       52.02196
N          7.95488      104.39886       50.66773
O          8.75206      103.68755       52.61897
H          7.64332      103.59995       54.85037
H          5.22907      105.17438       53.99661
H          7.48816      105.98732       53.38715
H          6.32279      105.77255       52.04929
H          7.29023      104.98267       50.13907
H          8.63690      103.83666       50.14006
N          5.06734      102.08207       53.57740
C          4.18809      101.04011       53.06113
C          4.79078      100.12855       52.01299
O          4.14886       99.13263       51.70649
H          5.44105      101.93047       54.51940
H          3.21929      101.46857       52.72502
H          3.95825      100.36762       53.91704
N          6.00448      100.35466       51.43975
C          6.66104       99.38870       50.55175
C          8.02017       99.04205       51.12035
O          8.39226       99.64613       52.11420
C          6.80616       99.97479       49.12943
C          5.43473      100.23683       48.50139
O          7.54455      101.16909       49.17662
H          6.50849      101.22736       51.66188
H          6.07774       98.44400       50.48535
H          7.33959       99.22686       48.49753
H          7.85487      101.35375       48.25157
H          5.56134      100.61888       47.46667
H          4.84962       99.29348       48.45816
H          4.86896      100.98928       49.09019
N          8.83200       98.09990       50.55255
C         10.21117       97.90853       51.00010
C         11.17673       98.21079       49.86462
O         10.78157       98.22020       48.70548
C         10.45971       96.53325       51.69358
C         10.36091       95.32772       50.72876
C          9.51817       96.38713       52.90495
C         10.75553       94.00141       51.39327
H          8.48529       97.54682       49.75321
H         10.44339       98.66627       51.77506
H         11.49755       96.54787       52.08539
H         11.07245       95.48848       49.89090
H          9.33622       95.23952       50.31074
H          8.45750       96.33748       52.57822
H          9.74950       95.48199       53.50125
H          9.64619       97.25306       53.58612
H         11.77464       94.07787       51.82691
H         10.04387       93.71411       52.19359
H         10.75486       93.18654       50.63985
N         12.46406       98.53155       50.15449
C         13.48882       98.88597       49.18052
C         14.61077       97.85134       49.30613
O         14.45501       96.93261       50.09188
C         13.92817      100.34210       49.49636
C         14.71519      101.08005       48.44088
O         15.14979      102.32656       48.70671
O         14.89091      100.61778       47.32610
H         12.74429       98.54567       51.14133
H         13.07003       98.85397       48.15105
H         14.48156      100.34875       50.45936
H         13.01397      100.95948       49.63466
N         15.75284       97.89231       48.57274
C         16.79513       96.87152       48.65959
C         17.35378       96.70049       50.07824
O         17.35270       95.56440       50.53146
C         17.88732       97.15242       47.60444
C         19.01860       96.15346       47.60441
C         18.78018       94.78228       47.40082
C         20.33919       96.60004       47.78463
C         19.84740       93.87825       47.37937
C         21.40182       95.69438       47.75596
C         21.15690       94.33448       47.55345
H         15.88741       98.65113       47.90029
H         16.33940       95.89654       48.37255
H         18.29403       98.17085       47.73449
H         17.40809       97.13151       46.60162
H         17.77398       94.41109       47.25534
H         20.54909       97.65161       47.93726
H         19.66026       92.82397       47.22203
H         22.41571       96.04952       47.88655
H         21.98253       93.63547       47.52888
N         17.82796       97.72642       50.85846
C         18.34474       97.54443       52.21572
C         17.41224       96.74459       53.10190
O         17.83440       95.81755       53.77790
C         18.43166       98.98241       52.76332
C         18.74422       99.77215       51.52000
C         17.81240       99.12992       50.49723
H         19.35255       97.07764       52.16397
H         17.43077       99.34324       53.09474
H         19.13255       99.11191       53.61528
H         18.63256      100.87334       51.61672
H         19.79372       99.53574       51.23534
H         16.76995       99.50498       50.59233
H         18.21245       99.35200       49.49541
N         16.10635       97.09831       53.13714
C         15.09605       96.52101       54.00713
C         14.90349       95.04493       53.69499
O         15.03924       94.22911       54.59601
C         13.81764       97.37508       53.87426
C         14.12406       98.82675       54.34250
C         12.97216       99.75459       54.20850
O         12.36091       99.96444       53.04039
O         12.57683      100.36668       55.17913
H         15.82177       97.85392       52.49639
H         15.41696       96.60930       55.06957
H         13.00388       96.94506       54.48390
H         13.49209       97.36893       52.81874
H         14.93969       99.29032       53.76085
H         14.43905       98.79831       55.40938
N         14.65340       94.62081       52.42844
C         14.57360       93.22147       52.06973
H         15.52585       92.71101       52.33003
H         13.73075       92.73327       52.59967
H         14.41734       93.12246       50.97309
H         14.56197       95.30942       51.68125
Ca        10.33023      100.68344       53.55853
O         12.67615      103.31164       52.44212
H         12.73550      104.12272       51.87687
H         13.16748      103.54742       53.26849
O         10.67226      102.08237       50.51206
H         11.09889      102.86872       50.08724
H         10.09505      101.70346       49.80347

Ca 1.0



