%chk=holoCaM.loop2.water1.frame183.chk
%nprocshared=20
%mem=10GB
%nosave
#b3lyp/svp scf=(tight,noincore,xqc) Test 
#IOP(5/87=12) Density=Current Pop=(MK,readradii) iop(6/33=2) iop(6/42=6)

holoCaM.loop2.water1.frame183 

   -2  1 
C         41.86899       76.50247       91.27970
C         42.89301       77.56310       90.98360
O         43.28440       77.70859       89.83606
H         40.94084       76.71448       90.70823
H         42.25917       75.50554       90.98948
H         41.60970       76.47602       92.36036
N         43.35390       78.36461       91.98026
C         44.30265       79.45482       91.77443
C         45.66017       78.93897       91.31837
O         46.23137       78.07149       91.96426
C         44.39724       80.27974       93.06079
C         45.35828       81.43015       92.97826
O         46.21817       81.50112       93.84052
O         45.31461       82.39811       92.02184
H         42.97742       78.21375       92.93013
H         43.89453       80.14762       91.01415
H         44.70201       79.61598       93.90407
H         43.38946       80.68288       93.29321
N         46.23586       79.47393       90.20371
C         47.50797       79.05832       89.63408
C         48.55482       80.17341       89.66388
O         49.68401       79.89719       89.28257
C         47.25994       78.62268       88.18091
H         45.74135       80.22979       89.72551
H         47.91835       78.19643       90.20277
H         46.51484       77.79904       88.14689
H         46.85721       79.47516       87.58771
H         48.19593       78.27179       87.69805
N         48.26206       81.45416       90.05352
C         49.23521       82.54987       90.01614
C         49.23389       83.42137       91.28341
O         49.97430       84.39454       91.31502
C         49.02210       83.38123       88.72966
C         47.69468       84.07425       88.60141
O         46.76597       83.98418       89.56364
O         47.45392       84.73052       87.60155
H         47.29223       81.69102       90.29234
H         50.26463       82.13958       89.91865
H         49.13292       82.69696       87.85953
H         49.82283       84.14841       88.65974
N         48.47490       83.11989       92.37848
C         48.50042       83.88007       93.62787
C         47.86076       85.26435       93.58639
O         47.92715       85.94547       94.59991
H         47.92681       82.25599       92.36720
H         49.55771       83.97402       93.95914
H         47.96292       83.30769       94.41266
N         47.25020       85.76712       92.47622
C         46.77372       87.15117       92.38084
C         45.48571       87.48659       93.15830
O         45.05554       88.62914       93.06918
C         46.63483       87.56328       90.89920
C         45.55421       86.86805       90.12243
N         45.31393       87.25236       88.85287
O         44.88925       85.97397       90.62073
H         47.23431       85.18709       91.63074
H         47.58207       87.80992       92.76869
H         47.60213       87.38938       90.37812
H         46.42429       88.65349       90.86139
H         45.86299       88.00376       88.41194
H         44.56361       86.81193       88.31822
N         44.82733       86.59093       93.95119
C         43.63476       86.93772       94.72814
C         42.32933       87.00661       93.93625
O         41.30133       87.23880       94.55633
H         45.22665       85.65354       94.08838
H         43.80882       87.89193       95.27594
H         43.48123       86.14855       95.49406
N         42.27819       86.80805       92.58859
C         41.05352       86.81786       91.78504
C         40.95653       85.56184       90.93468
O         41.92033       85.22481       90.26159
C         41.04053       88.03917       90.83738
C         40.82156       89.33996       91.60630
O         42.23876       88.13122       90.10767
H         43.15757       86.65911       92.08829
H         40.14007       86.89009       92.41786
H         40.16996       87.95440       90.14196
H         42.15176       87.53492       89.31987
H         40.77942       90.18949       90.89233
H         39.85203       89.29867       92.14996
H         41.63993       89.51542       92.33401
N         39.78686       84.86310       90.84452
C         39.62162       83.75356       89.90650
C         39.77228       84.27796       88.47936
O         39.14647       85.26307       88.11459
C         38.28485       82.97482       90.10852
C         38.23740       82.41353       91.55925
C         38.19436       81.82098       89.08223
C         37.04222       81.50942       91.86268
H         38.98181       85.16611       91.41251
H         40.42124       83.00669       90.10795
H         37.41803       83.65192       89.94054
H         38.20221       83.25939       92.27594
H         39.15943       81.82671       91.76616
H         39.03038       81.10460       89.22821
H         37.23414       81.27498       89.16584
H         38.22656       82.20424       88.04380
H         37.07298       81.21527       92.93302
H         36.08755       82.03505       91.65689
H         37.09286       80.57234       91.27009
N         40.59160       83.61820       87.62036
C         40.92203       84.03067       86.25928
C         40.07848       83.26627       85.25096
O         39.26990       82.46343       85.66797
C         42.43390       83.77049       86.08818
C         43.19552       84.70615       86.98670
O         43.73157       84.35287       88.19127
O         43.24777       85.87583       86.64467
H         41.01124       82.74293       87.95262
H         40.68203       85.10616       86.10029
H         42.77115       83.93501       85.04123
H         42.65706       82.71370       86.34204
N         40.14693       83.51975       83.90715
C         39.29221       82.82701       82.93418
C         39.59078       81.32821       82.87899
O         38.66458       80.57528       83.15415
C         39.32367       83.51879       81.54568
C         38.64645       82.69958       80.46090
C         37.31967       82.24921       80.60032
C         39.35791       82.36552       79.29297
C         36.72786       81.47116       79.59809
C         38.75795       81.59845       78.28998
C         37.44570       81.14770       78.44394
H         40.78825       84.25561       83.57669
H         38.23523       82.93452       83.26966
H         40.35812       83.75139       81.23869
H         38.81459       84.50238       81.64014
H         36.74650       82.48404       81.48719
H         40.37833       82.69984       79.15419
H         35.71218       81.11589       79.71611
H         39.31283       81.35041       77.39399
H         36.98604       80.54748       77.66878
N         40.80883       80.78980       82.55313
C         41.10309       79.35810       82.57753
C         40.60424       78.66069       83.83127
O         40.01020       77.59680       83.75045
C         42.63995       79.32160       82.55547
C         42.95813       80.50020       81.67388
C         41.99412       81.55424       82.20778
H         40.68461       78.87959       81.66409
H         43.05064       79.57310       83.56148
H         43.07357       78.35092       82.23504
H         44.02202       80.81843       81.65252
H         42.64667       80.22636       80.63897
H         42.37573       82.05660       83.12309
H         41.84245       82.27916       81.39256
N         40.82269       79.24734       85.03353
C         40.46441       78.67688       86.32736
C         38.96339       78.48155       86.44369
O         38.52956       77.39945       86.81141
C         40.97734       79.59989       87.44936
C         42.50632       79.77555       87.35802
C         43.04336       80.71339       88.37422
O         42.27073       81.20013       89.36502
O         44.19972       81.07658       88.26601
H         41.26897       80.17380       85.00802
H         40.97528       77.69792       86.46326
H         40.71567       79.17028       88.44175
H         40.48959       80.59240       87.35307
H         42.79860       80.21533       86.38772
H         43.02640       78.79960       87.44932
N         38.11353       79.49124       86.11731
C         36.67166       79.41726       86.19353
H         36.29932       80.24767       86.83051
H         36.24710       79.53960       85.17421
H         36.32086       78.45567       86.61828
H         38.50791       80.35913       85.76000
Ca        44.25002       83.05232       90.06466
O         43.21957       83.99131       93.15066
H         42.74680       83.16970       92.86755
H         43.75365       83.71564       93.93757

Ca 1.0



