%chk=holoCaM-CaMKII.loop1.water2.frame264.chk
%nprocshared=20
%mem=10GB
%nosave
#b3lyp/svp scf=(tight,noincore,xqc) Test 
#IOP(5/87=12) Density=Current Pop=(MK,readradii) iop(6/33=2) iop(6/42=6)

holoCaM-CaMKII.loop1.water2.frame264 

   0  1 
C         77.92975       15.08994       43.90765
C         78.98029       15.65882       43.00659
O         78.64076       16.43868       42.12879
H         77.18551       14.53275       43.30404
H         78.37150       14.40659       44.66241
H         77.42187       15.92217       44.44091
N         80.29464       15.35872       43.19370
C         81.33511       15.99921       42.40970
C         81.42050       15.40171       41.00817
O         81.54292       14.18995       40.89484
C         82.69834       15.89695       43.12126
C         83.62158       16.97403       42.63322
O         83.15723       17.91472       41.78802
O         84.73655       17.08490       43.11172
H         80.56091       14.75311       43.98578
H         81.07430       17.08191       42.38745
H         83.13692       14.88145       43.01192
H         82.56591       16.10639       44.20573
N         81.39027       16.19790       39.90006
C         81.39309       15.69754       38.52559
C         82.63540       16.08726       37.73044
O         82.81416       15.51956       36.66109
C         80.16029       16.26349       37.78491
C         78.81436       15.88579       38.41882
C         78.49631       14.39423       38.24010
C         77.11514       14.00550       38.78796
N         77.03876       14.13682       40.24321
H         81.33824       17.20711       40.04049
H         81.37419       14.58750       38.53102
H         80.15760       15.94461       36.71943
H         80.24252       17.37429       37.80010
H         78.02061       16.47070       37.90497
H         78.81515       16.18145       39.48700
H         79.26705       13.76192       38.72677
H         78.50101       14.17334       37.14993
H         76.92827       12.94334       38.51711
H         76.32500       14.62559       38.30850
H         77.10959       15.13831       40.52568
H         76.11451       13.77354       40.56881
H         77.79888       13.57869       40.69645
N         83.50472       17.05949       38.13430
C         84.69238       17.44016       37.36308
C         85.98441       17.31774       38.17491
O         87.04342       17.59345       37.62844
C         84.49197       18.81994       36.69071
C         84.20780       19.98752       37.59062
O         84.02009       21.08819       37.09737
O         84.13480       19.84494       38.92202
H         83.30238       17.57596       38.99891
H         84.83238       16.74378       36.50715
H         83.63072       18.72967       35.99214
H         85.39210       19.05677       36.08242
N         85.98974       16.81945       39.44508
C         87.19895       16.49527       40.18546
C         88.03674       17.68590       40.59163
O         89.23091       17.69062       40.33138
H         85.10290       16.55409       39.89493
H         87.80779       15.76641       39.60657
H         86.89463       15.99159       41.12943
N         87.48133       18.69372       41.31339
C         88.23888       19.75606       41.97672
C         87.96159       19.73162       43.48984
O         88.38619       20.64691       44.18102
C         87.97829       21.13460       41.31026
C         86.53108       21.43036       41.12544
O         85.70990       21.35960       42.17269
O         86.06923       21.55101       40.00223
H         86.46194       18.66942       41.46158
H         89.33460       19.60184       41.87180
H         88.44716       21.12315       40.30158
H         88.46139       21.94273       41.89836
N         87.34232       18.66399       44.08725
C         87.15823       18.51860       45.52505
C         86.09441       19.40625       46.14408
O         85.90608       19.29235       47.34668
H         87.07731       17.84873       43.52029
H         88.13306       18.67428       46.03637
H         86.84028       17.47220       45.73140
N         85.35557       20.29550       45.41881
C         84.32079       21.15020       46.00670
C         82.97968       20.94623       45.31164
O         82.90539       20.20391       44.34310
C         84.75774       22.63397       45.93700
C         85.99011       22.91229       46.81205
O         84.98108       23.03501       44.60851
H         85.53284       20.38406       44.41279
H         84.16402       20.89315       47.07733
H         83.94768       23.27311       46.34682
H         85.88295       22.72096       44.33687
H         86.86400       22.31384       46.47790
H         86.25341       23.98956       46.75262
H         85.76824       22.66162       47.87114
N         81.85998       21.56866       45.79312
C         80.52944       21.42584       45.20268
C         79.98092       22.81183       44.86868
O         80.09299       23.70736       45.69395
C         79.54675       20.69997       46.17206
C         80.19314       19.45282       46.82901
C         78.27011       20.30163       45.39154
C         79.28869       18.78736       47.87152
H         81.94574       22.14648       46.64262
H         80.58737       20.79966       44.28651
H         79.28157       21.40023       46.99511
H         81.10719       19.77035       47.37478
H         80.48804       18.70847       46.05785
H         78.52304       19.57484       44.58633
H         77.50499       19.84444       46.04684
H         77.79170       21.18186       44.92367
H         79.84004       17.96398       48.37078
H         78.98519       19.52695       48.64400
H         78.38256       18.34867       47.40862
N         79.30171       23.03404       43.70969
C         78.70832       24.31857       43.33651
C         77.19388       24.21010       43.33597
O         76.66933       23.15168       43.62964
C         79.22596       24.73990       41.93873
C         80.73523       24.97488       41.96224
O         78.91131       23.74370       40.99850
H         79.14967       22.24201       43.07631
H         78.96984       25.11020       44.07219
H         78.74097       25.69715       41.64254
H         78.98471       24.15493       40.09810
H         81.25981       24.04830       42.26565
H         81.08777       25.27669       40.95315
H         80.98334       25.78561       42.67964
N         76.42032       25.28770       43.02827
C         74.96127       25.22834       42.95181
C         74.52144       24.26365       41.86261
O         73.67724       23.41748       42.12242
C         74.35078       26.62874       42.68675
C         74.60953       27.58719       43.85574
O         74.86343       27.17538       41.49838
H         76.89106       26.18120       42.82678
H         74.54502       24.88006       43.92461
H         73.24587       26.49587       42.59596
H         74.21972       27.86921       41.19840
H         74.11583       28.56178       43.65779
H         74.18734       27.16755       44.79379
H         75.69445       27.76779       43.99996
N         75.06738       24.33621       40.61632
C         74.65894       23.49634       39.49386
C         74.77741       22.02098       39.83971
O         73.81353       21.28532       39.68210
C         75.53222       23.83854       38.25858
C         75.04827       23.23101       36.92839
C         73.69140       23.81550       36.49873
C         73.28168       23.36005       35.09500
N         72.00070       23.95964       34.71771
H         75.81218       25.03295       40.45909
H         73.60116       23.73876       39.26841
H         76.57883       23.51307       38.45092
H         75.55447       24.94200       38.11955
H         75.00128       22.12220       36.99008
H         75.80009       23.50152       36.15412
H         73.76355       24.92558       36.49471
H         72.89903       23.50887       37.21112
H         73.19449       22.25162       35.06965
H         74.05943       23.67142       34.36222
H         71.25269       23.65958       35.38464
H         72.07572       25.00345       34.72452
H         71.74225       23.64701       33.75453
N         75.93956       21.54025       40.35761
C         76.16089       20.14727       40.74278
C         75.13487       19.70639       41.77588
O         74.48015       18.69389       41.56982
C         77.60249       19.96641       41.28162
C         78.64674       20.28264       40.18879
C         80.06157       20.15197       40.66799
O         80.51546       20.89026       41.69311
O         80.83825       19.43327       40.07080
H         76.69502       22.22245       40.51221
H         76.05930       19.49027       39.84978
H         77.74268       18.91479       41.61236
H         77.75278       20.62762       42.16106
H         78.53506       21.32109       39.82563
H         78.48569       19.60003       39.32497
N         74.91091       20.44677       42.89275
C         73.92328       20.09400       43.88852
H         72.91878       20.01519       43.42038
H         74.19326       19.12963       44.36608
H         73.88198       20.88176       44.67227
H         75.43700       21.31251       43.02419
Ca        84.17467       19.86377       41.67313
O         83.63345       23.25515       41.89778
H         83.36966       23.66012       41.03520
H         84.33761       23.85969       42.23974
O         81.63739       22.53506       39.46475
H         81.37463       23.26033       38.84538
H         82.01302       21.82948       38.88152

Ca 1.0



