%chk=holoCaM-CaMKII.loop4.water1.frame424.chk
%nprocshared=20
%mem=10GB
%nosave
#b3lyp/svp scf=(tight,noincore,xqc) Test 
#IOP(5/87=12) Density=Current Pop=(MK,readradii) iop(6/33=2) iop(6/42=6)

holoCaM-CaMKII.loop4.water1.frame424 

   -3  1 
C         70.63515       68.99774       43.84033
C         70.94149       69.54147       45.19786
O         70.41312       70.58661       45.55335
H         69.92993       69.66880       43.30465
H         71.57072       68.90480       43.25339
H         70.16107       67.99921       43.94878
N         71.76731       68.85781       46.03936
C         71.99041       69.30522       47.40646
C         72.75890       70.62721       47.42894
O         73.34186       70.99596       46.41798
C         72.71969       68.20998       48.21500
C         72.47529       68.30028       49.69033
O         73.01858       67.50363       50.43663
O         71.55025       69.14562       50.18358
H         72.17046       67.96328       45.71885
H         70.97022       69.44349       47.83049
H         73.80577       68.22144       47.97450
H         72.31828       67.21105       47.93532
N         72.73613       71.42749       48.53155
C         73.33949       72.74823       48.60211
C         74.27565       72.79008       49.80315
O         75.46225       73.01819       49.61266
C         72.20440       73.82168       48.65463
C         71.30287       73.67675       47.39155
C         72.78672       75.24135       48.76343
C         70.11277       74.63343       47.33206
H         72.19682       71.13688       49.34618
H         73.93881       72.95501       47.68623
H         71.57718       73.64688       49.55475
H         70.87265       72.65333       47.36951
H         71.91334       73.81428       46.47212
H         73.40596       75.48180       47.87397
H         71.97638       75.99340       48.85527
H         73.40822       75.33844       49.67734
H         69.50256       74.39657       46.43333
H         69.47721       74.51786       48.23226
H         70.44315       75.68693       47.24314
N         73.81145       72.58137       51.07305
C         74.67724       72.64408       52.25213
C         75.47384       71.35910       52.49318
O         76.29072       71.34789       53.40365
C         73.87600       73.08425       53.49928
C         72.81995       72.12366       53.97717
O         72.06540       72.45714       55.04133
O         72.63813       71.05083       53.42627
H         72.80048       72.43367       51.20759
H         75.41146       73.46492       52.09037
H         73.38379       74.05387       53.26520
H         74.58220       73.25862       54.33953
N         75.32387       70.25406       51.70739
C         76.15227       69.06434       51.83221
C         75.93893       68.28376       53.11139
O         76.89923       68.03574       53.82606
H         74.64232       70.26482       50.93524
H         77.22214       69.34592       51.72012
H         75.90227       68.37422       50.99653
N         74.70714       67.78804       53.40690
C         74.43530       66.82821       54.47947
C         73.91610       65.51360       53.87868
O         73.44947       64.66274       54.62266
C         73.50832       67.46164       55.55455
C         72.17186       67.91442       55.05510
O         71.46319       68.63662       55.73698
O         71.77652       67.55144       53.83565
H         73.92919       68.05031       52.78538
H         75.36663       66.57045       55.02955
H         74.04065       68.36151       55.93162
H         73.35739       66.76989       56.41109
N         74.06389       65.24543       52.54121
C         73.70776       63.98403       51.90952
C         72.22993       63.79876       51.63438
O         71.89541       62.76251       51.07535
H         74.55739       65.91741       51.93838
H         74.11139       63.13903       52.50856
H         74.20216       63.94534       50.91350
N         71.28849       64.72906       51.96756
C         69.86293       64.55868       51.68963
C         69.29717       65.71698       50.88736
O         69.98836       66.70293       50.67084
C         69.10160       64.28306       53.01196
C         69.28507       65.28351       54.17446
C         68.55310       66.59608       54.03067
N         67.62528       66.96014       54.94522
O         68.81265       67.35555       53.11426
H         71.58474       65.58438       52.44953
H         69.70851       63.65879       51.05432
H         69.51630       63.32054       53.38490
H         68.01955       64.11743       52.82228
H         70.36169       65.46483       54.35953
H         68.89770       64.78242       55.08697
H         67.39192       66.35250       55.74331
H         67.14835       67.86638       54.86595
N         68.03757       65.63515       50.37253
C         67.38840       66.69971       49.61415
C         66.03678       66.99363       50.24741
O         65.15747       66.14312       50.19155
C         67.25696       66.26933       48.11851
C         66.33899       67.18441       47.29031
C         68.64305       66.23689       47.45036
H         67.51240       64.75627       50.50551
H         67.99475       67.62988       49.64250
H         66.81182       65.25025       48.07966
H         66.71219       68.22605       47.27803
H         66.28020       66.81825       46.24267
H         65.30512       67.16370       47.68666
H         69.33010       65.54876       47.98285
H         68.55741       65.89114       46.39779
H         69.09318       67.25522       47.44480
N         65.79477       68.18822       50.86282
C         64.47510       68.56801       51.36589
C         63.53230       68.82138       50.20476
O         63.96058       68.78397       49.06535
C         64.56069       69.87408       52.19400
C         65.34067       69.69165       53.46538
N         66.45368       70.42076       53.70841
O         64.94381       68.89185       54.29959
H         66.56876       68.85852       50.96219
H         64.07174       67.75521       52.00935
H         63.54720       70.21004       52.49812
H         65.00600       70.67998       51.56930
H         66.79476       71.10835       53.02135
H         66.97310       70.30261       54.59090
N         62.22738       69.13402       50.42734
C         61.32838       69.57005       49.36421
C         61.81732       70.88734       48.77829
O         61.86039       71.01778       47.56326
C         59.89599       69.73622       49.91091
C         58.94649       70.23394       48.84286
C         58.74574       69.50316       47.65723
C         58.26601       71.44974       49.01983
C         57.89070       69.98902       46.66403
C         57.40709       71.93009       48.02797
C         57.21983       71.20263       46.84410
O         56.40144       71.65968       45.87529
H         61.87300       69.10334       51.39552
H         61.29151       68.79461       48.56774
H         59.91260       70.44437       50.76881
H         59.53540       68.75440       50.28760
H         59.25661       68.56315       47.49313
H         58.40320       72.03022       49.92358
H         57.75281       69.42253       45.75148
H         56.89209       72.87004       48.17953
H         55.92281       72.49666       45.95959
N         62.23103       71.89454       49.60028
C         62.72846       73.18719       49.13244
C         63.83182       72.99890       48.10428
O         63.72952       73.53175       47.00824
C         63.24773       74.00091       50.34499
C         63.67918       75.42796       49.97807
C         64.18899       76.15522       51.19138
O         65.33102       76.58610       51.21462
O         63.38792       76.33920       52.25881
H         62.22144       71.71543       50.61673
H         61.88799       73.74669       48.66459
H         64.10567       73.46528       50.81103
H         62.43557       74.06933       51.10209
H         62.81043       75.98374       49.56502
H         64.48031       75.39759       49.20815
N         64.90759       72.22298       48.39755
C         66.01493       71.98088       47.47792
C         65.53632       71.32368       46.19043
O         65.92853       71.77086       45.12186
C         67.11074       71.13374       48.16446
C         67.69816       71.88058       49.37786
C         68.85768       71.15730       49.98655
O         69.94043       71.70821       50.06407
O         68.70868       69.92138       50.48955
H         64.92408       71.77166       49.32324
H         66.49363       72.94952       47.20847
H         67.92824       70.95513       47.43011
H         66.70139       70.15403       48.49018
H         66.93341       72.01687       50.16810
H         68.03805       72.88533       49.05206
N         64.65169       70.28979       46.21756
C         64.13238       69.63027       45.03615
H         63.03383       69.78812       44.97857
H         64.59232       70.01009       44.10055
H         64.32897       68.54022       45.10913
H         64.29300       69.97377       47.12058
Ca        71.00159       68.94173       52.31493
O         69.43805       71.46200       53.72760
H         68.88728       72.13462       54.20173
H         69.87878       71.97095       53.00199

Ca 1.0



