%chk=holoCaM-CaMKII.loop2.water0.frame277.chk
%nprocshared=20
%mem=10GB
%nosave
#b3lyp/svp scf=(tight,noincore,xqc) Test 
#IOP(5/87=12) Density=Current Pop=(MK,readradii) iop(6/33=2) iop(6/42=6)

holoCaM-CaMKII.loop2.water0.frame277 

   -2  1 
C         38.60948       32.61814       72.38198
C         39.28987       33.48596       71.36710
O         39.82535       34.52617       71.72398
H         37.54120       32.49088       72.11035
H         39.10104       31.62171       72.40026
H         38.67735       33.06630       73.39557
N         39.32993       33.09266       70.06520
C         40.03849       33.84220       69.03258
C         39.37861       35.20781       68.82124
O         38.17925       35.31762       69.03697
C         40.11416       32.97993       67.74960
C         41.21969       33.37577       66.81274
O         41.21779       34.55929       66.19432
O         42.13859       32.60310       66.60292
H         38.88400       32.19394       69.82049
H         41.07312       33.97296       69.40912
H         39.13194       32.95261       67.23064
H         40.35714       31.93912       68.06180
N         40.11453       36.30637       68.47784
C         39.57358       37.66471       68.39874
C         39.65510       38.27358       67.00150
O         39.06746       39.32731       66.79980
C         40.32553       38.55594       69.39297
H         41.11224       36.17981       68.30757
H         38.49840       37.65458       68.67904
H         41.40391       38.60611       69.12244
H         39.91162       39.58647       69.39380
H         40.24067       38.13985       70.41923
N         40.35140       37.67951       65.99236
C         40.39527       38.16353       64.61591
C         39.82300       37.13099       63.64080
O         39.77293       37.41630       62.45247
C         41.84659       38.54433       64.25296
C         42.81473       37.39967       64.39293
O         43.83432       37.48623       65.26751
O         42.68644       36.39336       63.71626
H         40.89172       36.83918       66.19924
H         39.77570       39.08038       64.50637
H         42.16974       39.36499       64.93001
H         41.88861       38.92931       63.21124
N         39.35959       35.91955       64.06706
C         38.77211       34.91618       63.20095
C         39.71476       34.39254       62.14135
O         39.34302       34.42034       60.97674
H         39.37393       35.68465       65.06627
H         37.85407       35.32812       62.72799
H         38.46572       34.04983       63.82816
N         40.92523       33.85162       62.47013
C         41.78477       33.17530       61.49377
C         42.04992       31.72024       61.87171
O         42.73826       31.04281       61.11997
C         43.12144       33.92647       61.28762
C         44.07060       33.94944       62.46598
N         45.29921       34.49676       62.31870
O         43.75314       33.46778       63.54244
H         41.22685       33.89511       63.45493
H         41.28546       33.15855       60.50065
H         42.90976       34.97012       60.97065
H         43.65743       33.42554       60.45108
H         45.59163       34.89329       61.41309
H         45.96641       34.50997       63.10425
N         41.56324       31.16934       63.02103
C         41.87396       29.81827       63.44520
C         43.35044       29.66367       63.71913
O         43.96033       28.74637       63.19300
H         40.96018       31.71647       63.65009
H         41.52175       29.08133       62.69123
H         41.33743       29.61663       64.39860
N         43.96395       30.51608       64.58778
C         45.34817       30.41325       65.04293
C         45.50843       31.39927       66.23928
O         45.99452       32.60702       65.75084
C         46.39277       30.70742       63.90616
C         47.84751       30.68624       64.41423
O         46.27885       29.77383       62.86874
H         43.37104       31.24176       65.01242
H         45.48129       29.37659       65.42021
H         46.17522       31.72529       63.50115
H         46.67409       30.19323       62.05920
H         48.09954       29.68945       64.82962
H         48.53929       30.91799       63.57719
H         48.03772       31.45035       65.19490
N         46.42372       30.89837       67.26814
C         46.26330       31.64874       68.53544
C         47.30688       32.76423       68.53340
O         48.48823       32.45496       68.46195
C         46.42406       30.69609       69.78023
C         45.25736       29.65980       69.87328
C         46.48251       31.50064       71.09551
C         45.51676       28.54263       70.89035
H         46.26879       29.87818       67.39358
H         45.24465       32.09511       68.61478
H         47.38754       30.15252       69.66277
H         45.09254       29.13248       68.91702
H         44.30547       30.18086       70.11795
H         47.34614       32.18798       71.08932
H         45.54608       32.08046       71.24246
H         46.63674       30.84775       71.97555
H         44.66912       27.82499       70.87571
H         46.44223       27.99173       70.61547
H         45.61185       28.92231       71.92536
N         46.94549       34.08122       68.64418
C         47.92064       35.14800       68.86305
C         48.17023       35.26376       70.36220
O         47.48358       34.61238       71.13020
C         47.43791       36.52569       68.33573
C         47.35019       36.73611       66.84000
O         46.38283       36.20073       66.07046
O         48.11793       37.52844       66.31662
H         45.95719       34.29858       68.80820
H         48.88837       34.88383       68.38311
H         48.18701       37.26913       68.68253
H         46.46699       36.80345       68.79765
N         49.16738       36.05297       70.85833
C         49.45407       36.10948       72.28848
C         48.29480       36.71155       73.07559
O         47.88859       36.07666       74.04085
C         50.77473       36.85562       72.59537
C         51.22988       36.61244       74.01910
C         51.64050       35.32477       74.41415
C         51.26602       37.65792       74.95798
C         52.08116       35.08963       75.71903
C         51.70099       37.41541       76.26659
C         52.11067       36.13373       76.64535
H         49.77263       36.56889       70.20352
H         49.61863       35.06070       72.62292
H         50.67002       37.93811       72.41134
H         51.58253       36.48945       71.92635
H         51.63202       34.50360       73.70824
H         50.95274       38.65664       74.68182
H         52.40280       34.09766       76.01036
H         51.72357       38.22161       76.98817
H         52.45285       35.94893       77.65567
N         47.69621       37.91029       72.76029
C         46.61509       38.50611       73.54201
C         45.43363       37.57477       73.73589
O         44.70130       37.72127       74.70289
C         46.17715       39.71440       72.70017
C         47.46527       40.10291       72.01355
C         48.01505       38.74108       71.61294
H         47.04250       38.81349       74.52183
H         45.49024       39.37923       71.88695
H         45.67269       40.52110       73.27368
H         47.35718       40.81973       71.17168
H         48.14433       40.54252       72.77952
H         47.47729       38.33635       70.72799
H         49.08638       38.85075       71.38481
N         45.16698       36.62342       72.80135
C         44.06440       35.67974       72.89245
C         44.38747       34.66639       73.97294
O         43.62502       34.53144       74.91934
C         43.84970       34.99422       71.52433
C         43.58314       36.04005       70.41871
C         43.49460       35.43412       69.05550
O         43.43696       36.16721       68.08132
O         43.51214       34.09854       68.88408
H         45.78567       36.56877       71.98150
H         43.12110       36.22393       73.12564
H         42.99149       34.28839       71.58621
H         44.75896       34.41839       71.25116
H         44.42040       36.76197       70.36486
H         42.65491       36.61116       70.63696
N         45.54515       33.94785       73.90153
C         45.98966       33.00535       74.90507
H         46.96504       33.34868       75.31308
H         45.27096       32.90868       75.74377
H         46.13593       32.00999       74.43590
H         46.17261       34.09252       73.10163
Ca        45.02097       34.47651       66.44474

Ca 1.0



