%chk=holoCaM.loop1.water2.frame439.chk
%nprocshared=20
%mem=10GB
%nosave
#b3lyp/svp scf=(tight,noincore,xqc) Test 
#IOP(5/87=12) Density=Current Pop=(MK,readradii) iop(6/33=2) iop(6/42=6)

holoCaM.loop1.water2.frame439 

   0  1 
C          9.26210      109.49359       55.08597
C          9.07826      110.84790       55.69740
O          8.43672      110.93953       56.73425
H         10.34470      109.25195       55.04958
H          8.74848      108.71839       55.69641
H          8.84107      109.47898       54.06032
N          9.60983      111.95565       55.10094
C          9.51228      113.28654       55.68501
C          8.58043      114.14211       54.84261
O          8.87369      114.43049       53.69124
C         10.92753      113.87855       55.87380
C         10.94926      115.13594       56.69873
O          9.84463      115.88099       56.81929
O         11.92881      115.40429       57.37004
H         10.10190      111.84878       54.20041
H          9.07488      113.20196       56.70468
H         11.46203      114.03480       54.91350
H         11.49976      113.12167       56.44982
N          7.38522      114.52127       55.37384
C          6.34645      115.26029       54.66477
C          6.76447      116.69730       54.37416
O          6.36419      117.22202       53.34478
C          5.03309      115.26478       55.49504
C          4.48354      113.83969       55.74395
C          3.21408      113.85833       56.60920
C          2.73873      112.42869       56.92317
N          1.55174      112.44196       57.77800
H          7.18258      114.21523       56.33376
H          6.10828      114.74260       53.70803
H          4.25519      115.84409       54.94953
H          5.21946      115.76468       56.47120
H          5.24092      113.22548       56.27144
H          4.26104      113.34874       54.77115
H          2.40889      114.41417       56.08225
H          3.43300      114.37817       57.56711
H          3.54900      111.87259       57.44358
H          2.50648      111.89130       55.97751
H          1.27104      111.45687       57.98964
H          1.76065      112.93259       58.67816
H          0.76153      112.92088       57.28901
N          7.49723      117.41629       55.27632
C          7.79131      118.84569       55.14861
C          9.28597      119.17809       55.02535
O          9.60671      120.35699       54.95930
C          7.11756      119.58587       56.32354
C          7.57425      119.11644       57.67625
O          8.73400      119.25376       58.02218
O          6.69299      118.54725       58.51936
H          7.80862      116.94242       56.13253
H          7.32827      119.25412       54.22370
H          6.02214      119.40805       56.24908
H          7.28718      120.68026       56.23858
N         10.24362      118.21662       54.88777
C         11.63880      118.50921       54.56955
C         12.50619      119.08132       55.67992
O         13.68046      119.29248       55.40739
H          9.95786      117.23082       54.85789
H         11.67377      119.18351       53.68658
H         12.12802      117.55505       54.27513
N         12.05861      119.32720       56.94535
C         12.95085      119.79431       58.01458
C         13.96453      118.73172       58.48027
O         14.72303      119.02577       59.39466
C         12.14983      120.36086       59.21486
C         11.25406      119.39799       59.94174
O         11.12224      118.24432       59.57159
O         10.56840      119.83161       61.01569
H         11.06150      119.19553       57.14998
H         13.52587      120.66929       57.63445
H         11.52119      121.20476       58.85735
H         12.87146      120.77676       59.95288
N         14.07267      117.50099       57.89143
C         15.05793      116.50412       58.28921
C         14.71695      115.76092       59.56891
O         15.52778      114.94450       59.98258
H         13.49597      117.26834       57.07787
H         16.05621      116.98844       58.36747
H         15.12771      115.73129       57.49336
N         13.54390      115.95859       60.23649
C         13.18324      115.27916       61.47743
C         11.88468      114.49741       61.30115
O         10.99008      114.96038       60.60729
C         13.06435      116.33761       62.60126
C         12.73126      115.72442       63.96876
O         14.25640      117.07899       62.69758
H         12.87150      116.63769       59.86660
H         13.98062      114.56639       61.78485
H         12.25329      117.04862       62.33731
H         14.99473      116.44362       62.89384
H         11.75246      115.20270       63.94256
H         13.51920      115.00155       64.27171
H         12.67162      116.52687       64.73356
N         11.70023      113.32171       61.97049
C         10.49326      112.50104       61.89070
C          9.75565      112.56171       63.22836
O         10.37470      112.44475       64.27644
C         10.86662      111.04405       61.48722
C         11.65307      110.97936       60.14780
C          9.62667      110.12858       61.42445
C         10.89838      111.49982       58.92007
H         12.45202      112.99337       62.59646
H          9.80179      112.89142       61.11324
H         11.53638      110.63033       62.27303
H         11.93357      109.92113       59.95222
H         12.59687      111.55707       60.24286
H          9.11343      110.08592       62.40645
H          8.89840      110.48455       60.67153
H          9.92551      109.09210       61.15972
H          9.97152      110.92083       58.74982
H         10.64918      112.57596       59.01892
H         11.53960      111.37628       58.02322
N          8.40248      112.72642       63.23723
C          7.55684      112.89789       64.41539
C          6.66505      111.67730       64.61476
O          6.78352      110.71400       63.87047
C          6.67900      114.16883       64.21952
C          7.54434      115.43136       64.09626
O          5.86764      113.99531       63.07957
H          7.92371      112.72061       62.33591
H          8.17438      113.01081       65.33335
H          6.02075      114.31219       65.10185
H          5.50790      114.87715       62.80139
H          6.89332      116.32675       63.99236
H          8.16412      115.56312       65.00729
H          8.20306      115.36674       63.20722
N          5.74977      111.64894       65.62864
C          4.85274      110.51765       65.87523
C          3.82726      110.30655       64.76606
O          3.20924      109.25162       64.74835
C          4.05426      110.71490       67.18667
C          4.95672      110.77851       68.41951
O          3.29418      111.89502       67.09297
H          5.71021      112.45826       66.26377
H          5.47861      109.60024       65.96088
H          3.37734      109.83570       67.30979
H          2.53882      111.80980       67.73024
H          5.65102      111.64173       68.37318
H          4.32650      110.88906       69.32701
H          5.54469      109.84146       68.50778
N          3.55084      111.27405       63.84768
C          2.53655      111.13410       62.80532
C          3.19247      110.99398       61.44210
O          2.47948      110.82761       60.46168
C          1.56388      112.32858       62.89127
C          0.76987      112.28749       64.21125
C         -0.04568      113.56498       64.43785
C         -0.86907      113.45952       65.73176
N         -1.55153      114.71857       66.02789
H          4.07118      112.16218       63.87742
H          1.95072      110.19759       62.93641
H          0.83711      112.30493       62.04927
H          2.15124      113.27036       62.81879
H          1.46514      112.18439       65.07083
H          0.09859      111.39979       64.19476
H         -0.73072      113.74658       63.58150
H          0.66115      114.41987       64.52012
H         -0.20289      113.20493       66.58638
H         -1.62064      112.64562       65.62155
H         -2.13426      114.59783       66.88792
H         -0.84577      115.47032       66.20505
H         -2.17087      114.99487       65.23222
N          4.54924      110.94550       61.32142
C          5.26432      110.62449       60.10029
C          5.99530      109.28835       60.25706
O          6.59465      108.84539       59.28804
C          6.29440      111.73477       59.83481
C          5.65903      113.12685       59.69316
C          6.71253      114.19112       59.73455
O          7.40974      114.34055       60.72093
O          6.93620      114.96183       58.67193
H          5.13726      111.09296       62.14766
H          4.56279      110.53017       59.24371
H          6.90467      111.50939       58.93286
H          6.97237      111.73633       60.70395
H          4.95104      113.33801       60.51884
H          5.10987      113.16308       58.73358
N          6.00768      108.59774       61.44246
C          6.70427      107.34348       61.63916
H          7.48867      107.47984       62.41445
H          5.98341      106.57866       61.99803
H          7.18426      106.97172       60.71158
H          5.52298      108.95987       62.27325
Ca         8.79886      116.18691       58.74454
O          6.38646      117.32625       61.21649
H          5.64683      117.06359       60.61310
H          5.94457      117.82126       61.95105
O          9.19420      117.58952       62.22531
H          9.94245      117.15818       61.74385
H          9.48186      117.59645       63.17237

Ca 1.0



