%chk=holoCaM-CaMKII.loop2.water1.frame210.chk
%nprocshared=20
%mem=10GB
%nosave
#b3lyp/svp scf=(tight,noincore,xqc) Test 
#IOP(5/87=12) Density=Current Pop=(MK,readradii) iop(6/33=2) iop(6/42=6)

holoCaM-CaMKII.loop2.water1.frame210 

   -2  1 
C         15.15404       49.77412       38.49232
C         14.47838       50.02020       39.81200
O         14.91697       49.49888       40.82547
H         16.03296       49.10576       38.60745
H         14.43677       49.31288       37.78154
H         15.50121       50.74252       38.06997
N         13.40260       50.84772       39.86343
C         12.72042       51.23256       41.09480
C         12.01825       50.06314       41.77786
O         11.17420       49.42907       41.16053
C         11.69679       52.33581       40.76909
C         10.96535       52.79693       41.99008
O          9.74769       52.72928       42.02980
O         11.64868       53.27153       43.04859
H         13.09205       51.27271       38.97466
H         13.46785       51.67978       41.78589
H         10.96472       51.96378       40.01800
H         12.23299       53.20652       40.33382
N         12.27857       49.78243       43.09057
C         11.58258       48.76377       43.87223
C         10.85384       49.34253       45.09636
O         10.20573       48.57040       45.78918
C         12.61042       47.72623       44.34048
H         13.00307       50.32871       43.56977
H         10.82492       48.24857       43.24390
H         13.37536       48.20613       44.99092
H         12.11868       46.91190       44.91398
H         13.12526       47.27640       43.46527
N         10.95190       50.65776       45.46117
C         10.38848       51.21212       46.70040
C          9.57460       52.50011       46.50385
O          9.06736       53.01569       47.49135
C         11.52817       51.44759       47.71122
C         12.74260       52.06790       47.09056
O         13.82561       51.51778       47.21515
O         12.66116       53.17813       46.34171
H         11.53813       51.28474       44.89657
H          9.69166       50.49129       47.18149
H         11.84523       50.46726       48.13065
H         11.16805       52.06196       48.56451
N          9.36299       53.05599       45.28112
C          8.50870       54.21486       45.04795
C          9.01351       55.56134       45.55004
O          8.30150       56.52978       45.32064
H          9.73839       52.58065       44.45834
H          7.50573       54.01567       45.48581
H          8.37435       54.32773       43.95072
N         10.18820       55.74033       46.22701
C         10.60221       57.06323       46.71099
C         11.09697       58.00908       45.60488
O         11.44988       59.13580       45.92664
C         11.61901       56.95396       47.86925
C         12.98117       56.43192       47.52486
N         13.92401       56.37355       48.49158
O         13.24908       56.08135       46.38922
H         10.76098       54.92089       46.46540
H          9.71766       57.53761       47.19236
H         11.18787       56.30952       48.66560
H         11.76407       57.97015       48.29673
H         13.71018       56.66880       49.45436
H         14.87408       56.05286       48.28626
N         11.11731       57.65050       44.28674
C         11.48700       58.56529       43.21371
C         12.97651       58.81205       43.04880
O         13.31718       59.54745       42.13275
H         10.76700       56.72615       44.00540
H         10.94210       59.52684       43.33934
H         11.14982       58.12351       42.25093
N         13.92295       58.22893       43.84311
C         15.36097       58.40524       43.63429
C         16.06056       57.07393       43.40790
O         15.49667       56.02457       43.68404
C         16.00309       59.11178       44.85408
C         15.47686       60.53752       45.01349
O         15.73982       58.40173       46.03958
H         13.62366       57.62878       44.61685
H         15.54611       59.02083       42.72643
H         17.10484       59.19926       44.70637
H         16.27151       57.56433       46.00961
H         15.69570       61.13094       44.10020
H         14.38146       60.53686       45.19467
H         15.97829       61.02530       45.87665
N         17.32861       57.06143       42.90833
C         18.12573       55.84954       42.77493
C         18.70505       55.49430       44.12972
O         19.38581       56.31638       44.72782
C         19.27056       56.03915       41.72833
C         18.72781       56.31804       40.29875
C         20.23846       54.83510       41.70056
C         17.90006       55.18280       39.67615
H         17.75507       57.95995       42.63325
H         17.49555       55.01338       42.40754
H         19.87657       56.92279       42.02950
H         19.59366       56.51135       39.62797
H         18.10639       57.23777       40.30906
H         21.03803       54.99899       40.94741
H         20.74355       54.71508       42.68042
H         19.70984       53.88825       41.46835
H         16.97565       54.98606       40.25508
H         17.59522       55.47359       38.64922
H         18.48922       54.24623       39.59549
N         18.54981       54.23588       44.61756
C         19.22169       53.73349       45.80858
C         20.32654       52.80115       45.39763
O         20.52128       52.58864       44.21227
C         18.18667       53.07963       46.73443
C         17.50130       54.18341       47.47188
O         16.26288       54.58506       47.17541
O         18.11932       54.80015       48.32433
H         18.01164       53.55810       44.06007
H         19.75745       54.54619       46.34926
H         18.64864       52.42129       47.50088
H         17.48796       52.45315       46.13414
N         21.18090       52.29895       46.32782
C         22.38438       51.58171       45.94639
C         22.09045       50.29847       45.17781
O         22.63516       50.16948       44.09021
C         23.30328       51.32086       47.15648
C         24.67163       50.87732       46.68957
C         25.15589       49.59412       46.98683
C         25.47656       51.75723       45.93821
C         26.41787       49.19627       46.53018
C         26.73485       51.35646       45.48665
C         27.20515       50.07572       45.78028
H         21.02123       52.51872       47.32377
H         22.94699       52.26798       45.27475
H         22.83842       50.57607       47.83147
H         23.43952       52.25766       47.74008
H         24.55530       48.90030       47.56088
H         25.13258       52.75656       45.70093
H         26.78575       48.20430       46.75505
H         27.34331       52.04019       44.90796
H         28.17999       49.76657       45.42662
N         21.25501       49.30422       45.62677
C         21.03757       48.07215       44.88080
C         20.29092       48.30750       43.57811
O         20.28617       47.41506       42.74140
C         20.25830       47.18987       45.86125
C         19.44980       48.21563       46.62965
C         20.47773       49.32481       46.85077
H         22.01016       47.58756       44.64205
H         19.68304       46.35695       45.40283
H         20.98081       46.75764       46.59029
H         18.65953       48.59890       45.94328
H         18.96052       47.85200       47.55798
H         19.91973       50.26733       47.01541
H         21.14517       49.09846       47.70801
N         19.63195       49.47328       43.33474
C         18.99206       49.77178       42.06227
C         20.06846       50.05950       41.03397
O         20.09777       49.41186       39.99786
C         18.02440       50.96479       42.20573
C         16.92232       50.63943       43.23519
C         15.89638       51.71896       43.39280
O         14.91946       51.54758       44.29785
O         15.92944       52.74155       42.72661
H         19.57909       50.17855       44.08180
H         18.36676       48.90856       41.73795
H         17.55195       51.16335       41.21808
H         18.57288       51.87601       42.52052
H         17.37333       50.47110       44.23441
H         16.39603       49.70856       42.93645
N         21.01640       51.00555       41.29117
C         22.11176       51.33281       40.40535
H         23.07156       51.11208       40.92061
H         22.07586       50.75805       39.45822
H         22.07960       52.41769       40.17133
H         20.98546       51.51039       42.18208
Ca        14.70337       53.86353       45.77778
O         12.94637       55.64764       42.55520
H         13.46928       55.16595       41.86705
H         12.03210       55.70264       42.18081

Ca 1.0



