%chk=holoCaM.loop3.water2.frame323.chk
%nprocshared=20
%mem=10GB
%nosave
#b3lyp/svp scf=(tight,noincore,xqc) Test 
#IOP(5/87=12) Density=Current Pop=(MK,readradii) iop(6/33=2) iop(6/42=6)

holoCaM.loop3.water2.frame323 

   0  1 
C         18.62517       40.36802      104.63529
C         19.97017       40.16793      105.26098
O         20.04630       39.51471      106.29231
H         17.97095       40.92771      105.33583
H         18.70313       40.93913      103.68644
H         18.17265       39.37836      104.41855
N         21.07946       40.73068      104.70533
C         22.41034       40.57282      105.26311
C         22.81477       41.88973      105.90030
O         23.00265       42.87642      105.20193
C         23.35705       40.09521      104.14784
C         24.75862       39.84174      104.59164
O         25.57112       39.44163      103.78043
O         25.13377       40.03178      105.86547
H         20.97385       41.32612      103.86902
H         22.39811       39.79104      106.05500
H         23.38259       40.84889      103.33145
H         22.96197       39.14174      103.73375
N         22.86042       41.98189      107.26067
C         23.07852       43.22846      107.98553
C         24.50055       43.75275      107.84653
O         24.71616       44.93025      108.09603
C         22.74521       42.99732      109.48193
C         22.72416       44.25538      110.37037
C         21.74598       45.34915      109.90310
C         20.28788       44.86577      109.81399
N         19.40857       45.94705      109.37389
H         22.61865       41.14328      107.80485
H         22.36139       43.96249      107.56037
H         23.47837       42.27587      109.90655
H         21.74896       42.51200      109.55320
H         23.74347       44.69093      110.42569
H         22.44737       43.94076      111.40052
H         22.06749       45.74017      108.91572
H         21.80231       46.19023      110.62744
H         19.95591       44.49828      110.81031
H         20.20101       44.03254      109.08458
H         19.69781       46.27617      108.42374
H         18.42736       45.58958      109.32120
H         19.44673       46.74245      110.05126
N         25.52940       42.91708      107.52622
C         26.92924       43.32744      107.46725
C         27.53131       43.14573      106.07606
O         28.68625       43.50759      105.89411
C         27.75271       42.55477      108.52969
C         27.83407       41.06115      108.27345
O         28.91380       40.55877      108.01842
O         26.72669       40.28435      108.31617
H         25.31291       41.93233      107.35387
H         27.01338       44.41077      107.70871
H         27.32681       42.73725      109.53992
H         28.78303       42.97744      108.52601
N         26.81744       42.61696      105.04030
C         27.33737       42.48352      103.69037
C         28.47901       41.49462      103.50697
O         28.94092       41.40358      102.37792
H         25.83368       42.35677      105.17814
H         27.66659       43.48596      103.34011
H         26.51091       42.15138      103.02424
N         29.00563       40.72658      104.51275
C         30.15242       39.84187      104.27260
C         29.84049       38.66501      103.34007
O         30.77087       37.95537      102.98365
C         30.79108       39.32690      105.59128
C         29.96123       38.35728      106.39715
N         30.47574       37.78554      107.50979
O         28.82991       38.07428      106.05080
H         28.63143       40.81231      105.46593
H         30.93738       40.46503      103.78910
H         31.05670       40.19354      106.23469
H         31.73484       38.80275      105.32754
H         31.43327       38.00439      107.82036
H         29.91908       37.11041      108.05484
N         28.56979       38.37912      102.92824
C         28.22306       37.26834      102.05130
C         27.32028       36.24218      102.71724
O         26.97540       35.27264      102.05746
H         27.79920       38.96881      103.24973
H         29.13327       36.73144      101.70866
H         27.71164       37.67560      101.15353
N         26.93575       36.35368      104.02196
C         26.18498       35.33787      104.74648
C         24.87894       35.92279      105.32521
O         24.94368       37.21102      105.88733
C         27.09750       34.72350      105.82914
C         28.19895       33.90953      105.18725
C         29.48325       34.44678      105.01572
C         27.94004       32.59754      104.74509
C         30.49103       33.68818      104.40989
C         28.95320       31.83551      104.15365
C         30.23329       32.38067      103.98217
O         31.22043       31.66057      103.41063
H         27.23515       37.16733      104.56670
H         25.86834       34.50659      104.07778
H         26.53798       34.03957      106.50430
H         27.50974       35.53488      106.46583
H         29.69975       35.45650      105.33688
H         26.95692       32.15901      104.86925
H         31.47515       34.11735      104.27368
H         28.74293       30.82315      103.82895
H         31.08745       30.75036      103.10864
N         24.19049       34.94805      106.17485
C         22.98234       35.37403      106.90122
C         22.89237       34.43113      108.08306
O         22.80195       33.22806      107.87738
C         21.67060       35.30764      106.03858
C         21.72419       36.27687      104.82778
C         20.43789       35.62534      106.92036
C         20.51914       36.16451      103.88711
H         24.00181       34.07164      105.63303
H         23.10280       36.41156      107.28417
H         21.55777       34.26992      105.65313
H         22.60771       36.04208      104.20530
H         21.81027       37.32569      105.18667
H         20.36029       34.91780      107.76988
H         20.49669       36.65898      107.32388
H         19.49003       35.51145      106.35900
H         20.43253       35.12679      103.49947
H         19.57144       36.45283      104.38324
H         20.65912       36.85136      103.02591
N         22.89896       34.91380      109.35405
C         22.79682       34.05535      110.52741
C         21.36792       34.03393      111.02189
O         20.52525       34.69406      110.44276
C         23.77379       34.54410      111.61129
O         23.44527       35.84888      112.00687
H         22.90853       35.93324      109.49337
H         23.05999       33.00754      110.26585
H         24.80533       34.52450      111.19732
H         23.73039       33.86958      112.49347
H         24.12865       36.12080      112.67262
N         21.01426       33.26492      112.08613
C         19.65559       33.23043      112.61720
C         19.23216       34.61277      113.08231
O         18.16870       35.07518      112.69216
C         19.57413       32.23323      113.77655
H         21.74065       32.68954      112.53769
H         18.95401       32.87081      111.83062
H         19.85661       31.22022      113.41586
H         20.25936       32.52235      114.60097
H         18.53478       32.18488      114.16550
N         20.05238       35.34534      113.88607
C         19.74273       36.68753      114.37262
C         19.42095       37.64819      113.23697
O         18.37513       38.28009      113.27202
C         20.93147       37.22782      115.18001
H         20.95963       34.92726      114.14897
H         18.86641       36.63342      115.05609
H         21.15147       36.55025      116.03274
H         21.84183       37.29786      114.54507
H         20.69902       38.23556      115.58423
N         20.27655       37.78915      112.18842
C         20.05829       38.69785      111.06016
C         18.72525       38.43534      110.37931
O         17.94528       39.36694      110.23421
C         21.21081       38.55051      110.04271
C         22.53529       39.08854      110.61458
C         23.70002       38.77613      109.72182
O         23.71199       39.13706      108.55815
O         24.75021       38.09467      110.21362
H         21.11998       37.19702      112.19071
H         20.05026       39.75201      111.41919
H         20.98508       39.12518      109.11676
H         21.29900       37.47982      109.76695
H         22.74887       38.64763      111.60975
H         22.44601       40.18828      110.74235
N         18.38662       37.19344      109.94757
C         17.13266       36.91396      109.28483
H         16.28112       37.21064      109.93355
H         17.08408       37.46960      108.32484
H         17.05356       35.82633      109.07154
H         19.03046       36.41636      110.10879
Ca        26.39624       38.17882      107.42093
O         28.35353       38.33891      110.08323
H         28.97865       39.09167      110.23310
H         28.89803       37.53011      110.25231
O         26.26769       35.80147      109.25148
H         26.86567       35.03344      109.07547
H         26.52160       36.10930      110.15771

Ca 1.0



