%chk=holoCaM-CaMKII.loop2.water2.frame415.chk
%nprocshared=20
%mem=10GB
%nosave
#b3lyp/svp scf=(tight,noincore,xqc) Test 
#IOP(5/87=12) Density=Current Pop=(MK,readradii) iop(6/33=2) iop(6/42=6)

holoCaM-CaMKII.loop2.water2.frame415 

   -2  1 
C         48.98430       67.22831       23.41296
C         50.41575       67.63546       23.22436
O         50.97162       68.29468       24.09162
H         48.36254       67.62494       22.58540
H         48.91923       66.11811       23.41764
H         48.58964       67.60238       24.38192
N         51.09742       67.22048       22.12131
C         52.52785       67.43867       21.96115
C         52.87559       68.89421       21.69230
O         52.23229       69.50670       20.85116
C         53.09944       66.58667       20.80628
C         54.59413       66.41048       20.95153
O         55.13149       66.51413       22.19127
O         55.24080       65.94411       20.03119
H         50.59964       66.63405       21.43316
H         52.98974       67.07781       22.90011
H         52.82196       67.03188       19.82459
H         52.67353       65.56174       20.83777
N         53.95492       69.47340       22.29497
C         54.39928       70.83620       22.02778
C         55.79944       70.91332       21.41134
O         56.17753       72.01395       21.03322
C         54.37081       71.62970       23.33812
H         54.49399       68.91737       22.96196
H         53.70628       71.32371       21.30885
H         53.34867       71.61251       23.77196
H         55.07407       71.18052       24.07430
H         54.66324       72.68736       23.16681
N         56.64224       69.83692       21.30847
C         58.00413       69.94076       20.76923
C         58.32140       68.91131       19.67613
O         59.42899       68.95149       19.15749
C         59.02100       69.90994       21.93167
C         58.91476       68.70634       22.81955
O         58.60608       68.85489       24.12186
O         59.13093       67.59485       22.37920
H         56.35278       68.92989       21.69811
H         58.15226       70.93120       20.28517
H         58.83940       70.80804       22.56091
H         60.05687       69.98577       21.53444
N         57.40693       67.99883       19.23393
C         57.64720       67.08302       18.12016
C         58.70830       66.00928       18.33638
O         58.95907       65.27713       17.38882
H         56.46337       68.00818       19.63508
H         57.93347       67.68690       17.23073
H         56.69873       66.56095       17.87039
N         59.39512       65.85442       19.50605
C         60.51001       64.91252       19.64468
C         60.12509       63.43345       19.55566
O         61.02312       62.62229       19.37978
C         61.31619       65.17411       20.93942
C         60.56022       64.95983       22.23046
N         61.20025       65.10481       23.41209
O         59.37684       64.66390       22.22261
H         59.18148       66.48316       20.28422
H         61.20304       65.12351       18.79915
H         61.68541       66.22230       20.92847
H         62.19985       64.50032       20.94362
H         62.19624       65.36302       23.44260
H         60.70495       64.94922       24.30008
N         58.83960       63.00274       19.69832
C         58.43348       61.60599       19.56914
C         57.84366       61.00416       20.83525
O         57.34064       59.89177       20.74510
H         58.10892       63.69515       19.88854
H         59.27719       60.95482       19.25268
H         57.66429       61.56054       18.76957
N         57.91223       61.62167       22.05151
C         57.37221       61.04421       23.28444
C         56.56718       62.05761       24.07954
O         56.74790       63.25469       23.90465
C         58.52012       60.52109       24.18130
C         59.20087       59.30151       23.56006
O         59.48594       61.52206       24.39028
H         58.42021       62.50838       22.12326
H         56.69257       60.19441       23.04820
H         58.11283       60.17633       25.16070
H         59.10413       62.17223       25.03502
H         60.00223       58.93608       24.23656
H         58.46098       58.48321       23.42372
H         59.65228       59.55105       22.57755
N         55.67703       61.63165       25.01910
C         54.95734       62.54618       25.89750
C         55.93710       63.09932       26.92204
O         56.57508       62.32568       27.62286
C         53.73661       61.85141       26.58457
C         52.74073       61.34163       25.50365
C         53.02458       62.83834       27.53616
C         51.52636       60.59822       26.06528
H         55.51652       60.61680       25.11773
H         54.52339       63.37283       25.29257
H         54.09840       60.98748       27.18460
H         53.26095       60.63490       24.82547
H         52.37526       62.19519       24.89284
H         52.64188       63.71951       26.97672
H         52.18151       62.35772       28.06816
H         53.71349       63.18408       28.32816
H         50.90598       60.22415       25.22360
H         51.85285       59.73386       26.68025
H         50.88148       61.26542       26.67195
N         56.04678       64.44241       27.09807
C         56.86737       65.08261       28.11732
C         55.96182       65.48547       29.27827
O         54.76597       65.25705       29.19367
C         57.62717       66.25994       27.46503
C         58.67851       65.76191       26.49447
O         58.53157       65.74300       25.14236
O         59.71797       65.32131       26.95923
H         55.42531       65.04877       26.55578
H         57.59374       64.36015       28.55244
H         58.14973       66.86266       28.24109
H         56.90820       66.93479       26.95969
N         56.46306       65.97407       30.44923
C         55.62442       66.10220       31.64302
C         54.46469       67.08673       31.49380
O         53.34522       66.65884       31.74131
C         56.44430       66.42376       32.91116
C         55.58629       66.26849       34.15438
C         55.08263       65.00161       34.51360
C         55.27199       67.37734       34.95851
C         54.28031       64.85089       35.64799
C         54.46411       67.22149       36.09194
C         53.96930       65.96023       36.43586
H         57.47813       66.13919       30.52752
H         55.19087       65.09172       31.81945
H         56.86130       67.44620       32.83809
H         57.30107       65.72177       33.00183
H         55.31155       64.12678       33.91815
H         55.64064       68.36244       34.70385
H         53.89852       63.87317       35.91509
H         54.21840       68.07919       36.70427
H         53.34490       65.84134       37.31248
N         54.60399       68.40279       31.12412
C         53.47682       69.32882       31.07058
C         52.50497       68.99573       29.95032
O         51.43556       69.58683       29.89796
C         54.14638       70.69260       30.87712
C         55.35446       70.32719       30.03719
C         55.83739       69.04624       30.71883
H         52.91829       69.32319       32.03256
H         53.49203       71.49344       30.47002
H         54.54193       71.02953       31.86203
H         54.98280       70.06764       29.01875
H         56.13151       71.11367       29.93522
H         56.41811       68.46362       29.97424
H         56.44498       69.26818       31.61942
N         52.82007       68.06955       29.00970
C         51.92187       67.64235       27.95259
C         50.91929       66.67683       28.54836
O         49.72397       66.88442       28.40008
C         52.74367       66.99829       26.82111
C         53.77385       68.01583       26.28079
C         54.66906       67.43951       25.24384
O         55.61878       68.09533       24.84844
O         54.46194       66.20029       24.76571
H         53.75281       67.63926       29.03477
H         51.40794       68.51824       27.49466
H         52.06997       66.66737       26.00090
H         53.28106       66.10766       27.20920
H         54.44257       68.35161       27.09805
H         53.26200       68.90959       25.86253
N         51.35738       65.62366       29.29781
C         50.48931       64.68773       29.97845
H         49.41680       64.88013       29.77464
H         50.73831       63.65520       29.65885
H         50.66207       64.76763       31.07376
H         52.36684       65.49519       29.43704
Ca        56.96470       66.07873       23.49350
O         55.58670       63.43410       21.41609
H         56.15468       63.86430       20.73655
H         54.99994       62.83184       20.89775
O         53.32216       63.80924       22.96022
H         52.55265       63.55044       22.39507
H         52.95866       64.49019       23.57795

Ca 1.0



