%chk=holoCaM-CaMKII.loop2.water2.frame484.chk
%nprocshared=20
%mem=10GB
%nosave
#b3lyp/svp scf=(tight,noincore,xqc) Test 
#IOP(5/87=12) Density=Current Pop=(MK,readradii) iop(6/33=2) iop(6/42=6)

holoCaM-CaMKII.loop2.water2.frame484 

   -2  1 
C         73.79079       91.50734       94.72202
C         73.78285       92.77013       95.53786
O         74.80609       93.13307       96.09802
H         73.50622       91.74218       93.67322
H         74.79997       91.04310       94.71401
H         73.06174       90.78023       95.13662
N         72.64807       93.51525       95.61459
C         72.57053       94.79842       96.30794
C         72.72165       94.64702       97.80940
O         72.02013       93.84499       98.41041
C         71.24724       95.49377       95.97042
C         71.12228       96.86736       96.58392
O         72.03881       97.86339       96.43495
O         70.13845       97.09608       97.26815
H         71.81768       93.17550       95.10241
H         73.36136       95.46299       95.91078
H         70.39478       94.85716       96.30464
H         71.16265       95.59883       94.87323
N         73.58560       95.46027       98.48016
C         73.78125       95.44000       99.92249
C         73.34326       96.74088      100.59379
O         73.40687       96.79248      101.81449
C         75.27002       95.20393      100.20736
H         74.11705       96.15022       97.93765
H         73.19221       94.61511      100.37812
H         75.60846       94.25551       99.74006
H         75.87573       96.03793       99.78631
H         75.46141       95.14978      101.29990
N         72.93810       97.84102       99.88645
C         72.62730       99.12457      100.51535
C         71.26519       99.68384      100.09521
O         70.49711      100.04205      100.97713
C         73.80928      100.11575      100.34705
C         74.28110      100.47305       98.96484
O         75.33265      101.30146       98.82467
O         73.75975      100.01293       97.97163
H         72.93522       97.80281       98.86144
H         72.57444       99.00640      101.62094
H         74.68645       99.66264      100.85953
H         73.55609      101.05767      100.87834
N         70.88613       99.78258       98.78827
C         69.61759      100.34398       98.34002
C         69.79497      101.48896       97.35552
O         68.78814      102.03462       96.92661
H         71.50601       99.41911       98.06656
H         69.01740      100.71471       99.19721
H         69.03169       99.54581       97.83510
N         71.02683      101.91463       96.94386
C         71.23484      103.03503       96.02698
C         70.69628      102.80637       94.60458
O         70.79815      103.71978       93.79719
C         72.73874      103.40055       95.97798
C         73.62450      102.35219       95.35514
N         74.93881      102.60350       95.19428
O         73.16722      101.28634       94.97293
H         71.86211      101.46724       97.33640
H         70.71264      103.91674       96.45664
H         73.10340      103.60143       97.01009
H         72.85764      104.33433       95.38900
H         75.35736      103.49051       95.50976
H         75.52676      101.91148       94.72043
N         70.11598      101.63284       94.22086
C         69.57940      101.38336       92.89113
C         70.64787      101.32500       91.82342
O         70.38706      101.76579       90.71577
H         70.02412      100.86306       94.89470
H         68.79307      102.12826       92.63442
H         69.09190      100.38567       92.90051
N         71.83169      100.69399       92.06748
C         72.91731      100.50759       91.10609
C         73.92344       99.48381       91.64033
O         74.38258       99.59981       92.76811
C         73.69503      101.82113       90.75236
C         72.93795      102.77942       89.83793
O         74.10254      102.55218       91.88282
H         71.95792      100.29170       93.00175
H         72.50565      100.08333       90.16331
H         74.59057      101.51624       90.16156
H         74.41199      101.92835       92.57875
H         72.10384      103.27028       90.36975
H         73.62244      103.59337       89.51938
H         72.57673      102.25182       88.92905
N         74.35580       98.47450       90.83502
C         75.40518       97.53273       91.22326
C         76.68578       98.29948       91.50137
O         77.10537       99.09206       90.66891
C         75.62380       96.45765       90.11690
C         74.33025       95.61588       89.94075
C         76.81165       95.53508       90.47707
C         74.36295       94.70094       88.71822
H         73.96355       98.41434       89.88359
H         75.10507       96.99122       92.14177
H         75.85900       96.98256       89.16401
H         73.45234       96.27711       89.79817
H         74.14598       95.01315       90.85698
H         77.75013       96.11677       90.56230
H         76.62591       95.01647       91.44270
H         76.99930       94.77693       89.69353
H         75.17016       93.94651       88.78379
H         73.39680       94.15917       88.64439
H         74.49757       95.30956       87.79853
N         77.38482       98.05606       92.64531
C         78.63482       98.72028       92.98200
C         79.80864       97.81098       92.67212
O         79.60589       96.68496       92.24114
C         78.66108       99.10709       94.47272
C         77.42592       99.81825       94.94172
O         76.29865       99.07349       95.08215
O         77.50940      100.95145       95.38635
H         77.04945       97.31839       93.27370
H         78.74968       99.63835       92.36559
H         79.56479       99.72054       94.67623
H         78.73658       98.18879       95.09699
N         81.08367       98.25967       92.83527
C         82.25111       97.46469       92.48341
C         82.34505       96.19450       93.32420
O         82.45828       95.14159       92.71372
C         83.53012       98.32532       92.52001
C         84.71326       97.60519       91.93181
C         84.95492       97.66062       90.54812
C         85.59125       96.88637       92.75757
C         86.06387       97.01064       90.00079
C         86.69941       96.23646       92.20557
C         86.93681       96.30045       90.82904
H         81.22642       99.22473       93.16830
H         82.14136       97.16668       91.41411
H         83.79130       98.72022       93.51607
H         83.34571       99.23115       91.90077
H         84.28728       98.21029       89.89536
H         85.41774       96.83276       93.82540
H         86.24740       97.06067       88.93513
H         87.37608       95.68590       92.84546
H         87.79719       95.80069       90.40387
N         82.29592       96.16109       94.69730
C         82.38326       94.92005       95.46056
C         81.21140       93.98779       95.19952
O         81.34567       92.78801       95.39218
C         82.39074       95.38413       96.92578
C         82.98598       96.77804       96.80970
C         82.23818       97.29818       95.58979
H         83.35236       94.43811       95.20339
H         81.34428       95.52738       97.28430
H         82.90582       94.69194       97.62641
H         82.87702       97.40460       97.71996
H         84.06702       96.69002       96.55251
H         81.17416       97.47956       95.86609
H         82.66809       98.23344       95.20754
N         80.00155       94.49640       94.82963
C         78.81839       93.67368       94.59575
C         78.89249       92.96315       93.25470
O         78.13712       92.02503       93.04296
C         77.56231       94.55487       94.61213
C         77.42525       95.29014       95.95909
C         76.29156       96.24879       95.98313
O         76.13708       97.03916       97.06147
O         75.53938       96.35685       95.02921
H         79.91279       95.51877       94.73931
H         78.72568       92.93384       95.42202
H         76.65224       93.94509       94.42331
H         77.65484       95.29079       93.78855
H         78.32878       95.89519       96.16724
H         77.29140       94.56006       96.78351
N         79.72931       93.40894       92.27531
C         79.84480       92.81654       90.96238
H         80.90113       92.51766       90.79606
H         79.19590       91.92629       90.84097
H         79.56647       93.57282       90.19761
H         80.30429       94.23727       92.44493
Ca        74.15591       98.52594       95.78487
O         71.00578       98.41644       94.05553
H         70.05899       98.37694       94.33776
H         71.04647       97.91017       93.20801
O         73.09507       96.13169       93.31010
H         73.76632       95.40851       93.38640
H         72.32608       95.70227       92.86025

Ca 1.0



