%chk=holoCaM-CaMKII.loop3.water2.frame41.chk
%nprocshared=20
%mem=10GB
%nosave
#b3lyp/svp scf=(tight,noincore,xqc) Test 
#IOP(5/87=12) Density=Current Pop=(MK,readradii) iop(6/33=2) iop(6/42=6)

holoCaM-CaMKII.loop3.water2.frame41 

   0  1 
C          4.35152       65.03974        8.59694
C          4.56474       63.67206        8.02112
O          3.72537       62.80018        8.19610
H          4.33879       65.78698        7.77442
H          3.38903       65.09632        9.14647
H          5.18263       65.28361        9.29144
N          5.68150       63.42721        7.28800
C          5.95638       62.14962        6.64768
C          6.19106       61.05986        7.68923
O          7.01990       61.23803        8.57078
C          7.17605       62.29828        5.72260
C          7.37894       61.12134        4.81522
O          8.32312       61.12187        4.04706
O          6.52321       60.08327        4.81152
H          6.34401       64.20674        7.14667
H          5.09175       61.89609        5.99539
H          8.08499       62.47414        6.33534
H          7.02347       63.17677        5.05854
N          5.49638       59.89074        7.62049
C          5.60742       58.79490        8.58305
C          7.04959       58.31809        8.74855
O          7.49148       58.24231        9.88664
C          4.62857       57.66135        8.18301
C          4.42736       56.57712        9.25992
C          3.26276       55.64435        8.86171
C          2.86679       54.62903        9.94929
N          3.91214       53.63997       10.20745
H          4.83843       59.78290        6.83692
H          5.25397       59.17414        9.56889
H          4.93275       57.19881        7.21956
H          3.63550       58.14303        8.04209
H          4.15580       57.07359       10.21718
H          5.36737       56.00470        9.40515
H          3.50041       55.11175        7.91538
H          2.36244       56.27323        8.68415
H          1.95257       54.09437        9.60496
H          2.60827       55.16293       10.89095
H          4.14143       53.12418        9.32711
H          4.76796       54.09840       10.59136
H          3.55808       52.95423       10.91384
N          7.86115       58.04453        7.67883
C          9.26275       57.61744        7.83231
C         10.27438       58.66666        7.38828
O         11.46067       58.43084        7.57380
C          9.50592       56.27914        7.09716
C          9.36949       56.35476        5.59730
O          9.35825       55.32592        4.94159
O          9.18329       57.53143        4.97529
H          7.47637       58.17360        6.73150
H          9.47703       57.43928        8.90768
H          8.75650       55.55368        7.48045
H         10.51821       55.88464        7.32980
N          9.90235       59.84009        6.80340
C         10.85966       60.85688        6.40274
C         11.85098       60.33854        5.38738
O         13.03985       60.35781        5.67397
H          8.90741       60.03747        6.64913
H         11.39765       61.21941        7.30615
H         10.32484       61.72422        5.96070
N         11.43721       59.89132        4.16603
C         12.35938       59.43646        3.12665
C         12.38882       60.39125        1.93777
O         13.16807       60.16010        1.02422
C         12.01514       57.99763        2.67917
C         10.77152       57.90609        1.81723
N         10.84763       57.42415        0.55352
O          9.69215       58.26904        2.25427
H         10.43122       59.90731        3.95869
H         13.39114       59.40989        3.53933
H         11.90648       57.34833        3.57511
H         12.87519       57.60841        2.09279
H         11.74549       57.10843        0.15840
H         10.00436       57.36479       -0.03630
N         11.57086       61.48234        1.88174
C         11.56128       62.43909        0.79265
C         10.20811       62.50553        0.12268
O          9.97379       63.47742       -0.58423
H         10.91143       61.67803        2.64659
H         12.33687       62.23629        0.02301
H         11.78425       63.43250        1.23856
N          9.28559       61.50055        0.24150
C          7.96669       61.55413       -0.38418
C          6.88033       61.23987        0.63098
O          7.18870       60.69670        1.68273
C          7.84728       60.53887       -1.54032
C          8.90989       60.68000       -2.60592
C         10.24454       60.31757       -2.34292
C          8.56892       61.13681       -3.88971
C         11.21634       60.41707       -3.34116
C          9.54423       61.23917       -4.88631
C         10.87163       60.87721       -4.61506
O         11.81983       60.96045       -5.56970
H          9.53605       60.64585        0.76220
H          7.78883       62.57350       -0.79396
H          6.84172       60.67843       -1.99514
H          7.89484       59.49949       -1.15423
H         10.53674       59.93982       -1.37215
H          7.54861       61.41590       -4.12097
H         12.23733       60.12785       -3.12497
H          9.26548       61.59487       -5.86995
H         11.62100       61.26392       -6.46687
N          5.57538       61.54201        0.37970
C          4.49008       61.21760        1.30402
C          3.30167       60.64164        0.54525
O          2.87218       61.24522       -0.43043
C          4.10980       62.45330        2.17555
C          3.17977       62.00558        3.33622
C          3.50277       63.60746        1.35624
C          2.87306       63.10529        4.35167
H          5.35332       62.06981       -0.47980
H          4.84673       60.45691        2.03541
H          5.05288       62.82260        2.63849
H          3.68599       61.18686        3.89477
H          2.22236       61.61029        2.93855
H          2.52073       63.32056        0.92693
H          3.34833       64.50174        1.99267
H          4.18775       63.90784        0.53769
H          2.27414       63.91808        3.89537
H          2.28165       62.67435        5.18579
H          3.81278       63.52466        4.76684
N          2.67338       59.51360        0.98115
C          1.46864       58.97043        0.35480
C          0.26500       59.19494        1.25989
O          0.42269       59.78851        2.31514
C          1.68361       57.48866        0.01027
O          1.89712       56.74208        1.17550
H          3.01897       59.05989        1.84070
H          1.24751       59.50306       -0.59602
H          2.56756       57.41624       -0.66543
H          0.79786       57.08277       -0.52258
H          2.34517       55.90224        0.89424
N         -0.98582       58.80558        0.88585
C         -2.18320       59.08515        1.67934
C         -2.15772       58.39946        3.03335
O         -2.30053       59.08423        4.03707
C         -3.44328       58.66144        0.92300
H         -1.09759       58.33608       -0.02635
H         -2.25977       60.18650        1.83204
H         -4.34470       58.92239        1.51935
H         -3.49888       59.20403       -0.04436
H         -3.44345       57.56920        0.72588
N         -1.98304       57.04717        3.14074
C         -1.99024       56.33932        4.42491
C         -0.87579       56.77330        5.37102
O         -0.86203       56.30999        6.50391
C         -1.88682       54.82695        4.19573
H         -1.86595       56.50205        2.27318
H         -2.96373       56.54626        4.92207
H         -0.92099       54.57540        3.70646
H         -1.95179       54.28072        5.16176
H         -2.72078       54.48301        3.54866
N          0.07120       57.67461        4.99561
C          1.09753       58.18870        5.87848
C          0.60838       59.50262        6.45149
O          0.51075       59.62302        7.66478
C          2.41198       58.34191        5.09509
C          2.85827       56.99938        4.49539
C          4.17755       57.13789        3.81021
O          4.31555       56.86640        2.62924
O          5.23073       57.52175        4.53636
H          0.05778       58.06449        4.04964
H          1.28119       57.48641        6.72332
H          3.18773       58.72363        5.78309
H          2.29072       59.07962        4.27310
H          2.09985       56.62737        3.77580
H          2.97145       56.24948        5.30775
N          0.21762       60.51430        5.62929
C         -0.36264       61.74218        6.12210
H         -1.28951       61.51572        6.69184
H          0.35887       62.27538        6.77353
H         -0.63270       62.39738        5.26553
H          0.29545       60.39982        4.61336
Ca         7.31971       57.60008        3.78090
O          6.54017       57.73053        0.36857
H          5.73460       57.21416        0.11489
H          7.26171       57.35532       -0.19645
O          7.27856       55.17060        2.04542
H          7.22604       54.90218        2.99709
H          6.98305       54.36962        1.54505

Ca 1.0



