%chk=holoCaM.loop4.water3.frame209.chk
%nprocshared=20
%mem=10GB
%nosave
#b3lyp/svp scf=(tight,noincore,xqc) Test 
#IOP(5/87=12) Density=Current Pop=(MK,readradii) iop(6/33=2) iop(6/42=6)

holoCaM.loop4.water3.frame209 

   -3  1 
C          9.46334       62.93330       60.59020
C         10.95854       62.89484       60.53237
O         11.51994       61.82757       60.73059
H          9.11973       63.67042       61.34205
H          9.07401       63.20667       59.58674
H          9.06106       61.92992       60.85485
N         11.68065       64.02209       60.25648
C         13.12327       63.97575       60.04208
C         13.76092       65.36405       60.01808
O         13.32660       66.21159       59.25051
C         13.39696       63.25521       58.70812
C         14.86207       63.12319       58.46846
O         15.36303       63.59867       57.46227
O         15.62945       62.49455       59.37887
H         11.18143       64.91907       60.15588
H         13.58950       63.39980       60.87021
H         12.92167       63.81251       57.87067
H         12.96640       62.23487       58.71942
N         14.85149       65.62691       60.80596
C         15.56407       66.90810       60.83957
C         17.02381       66.78245       60.35501
O         17.71646       67.78947       60.33220
C         15.50654       67.46222       62.31029
C         15.79752       68.97882       62.44368
C         16.46453       66.69761       63.25199
C         14.72843       69.85335       61.78821
H         15.19783       64.87111       61.41137
H         15.04537       67.61025       60.15999
H         14.47188       67.31031       62.69182
H         16.79906       69.24119       62.04827
H         15.79208       69.24381       63.52435
H         17.52380       66.86942       62.96832
H         16.34025       67.04279       64.29985
H         16.27558       65.61184       63.23625
H         13.73285       69.62464       62.22655
H         14.95838       70.92158       61.98313
H         14.68828       69.70868       60.69173
N         17.57712       65.57948       60.00985
C         19.02854       65.38470       59.87010
C         19.45047       64.23169       58.93299
O         20.64703       64.07622       58.72939
C         19.65995       65.17875       61.27609
C         19.08600       63.99927       62.02150
O         18.02982       63.34108       61.51600
O         19.58579       63.63067       63.07191
H         16.97424       64.75671       60.06960
H         19.47604       66.30258       59.42885
H         19.52335       66.08443       61.90176
H         20.75414       65.02337       61.15076
N         18.55935       63.40723       58.31021
C         18.92534       62.37579       57.34433
C         19.72109       61.18567       57.87162
O         20.10965       60.37283       57.04429
H         17.56474       63.56244       58.44789
H         19.51134       62.86239       56.53405
H         17.99882       61.97017       56.88268
N         20.03668       61.00684       59.18850
C         20.95538       59.94906       59.63672
C         20.47793       58.50840       59.42572
O         21.32464       57.62678       59.46356
C         21.39389       60.18391       61.10070
C         20.27196       60.16849       62.10123
O         19.02939       59.81282       61.74663
O         20.47826       60.54400       63.24326
H         19.70288       61.69964       59.87324
H         21.87605       60.06453       59.02100
H         21.84755       61.19829       61.13859
H         22.16754       59.44936       61.40888
N         19.16775       58.17818       59.23592
C         18.70790       56.81053       58.98765
C         17.85838       56.23374       60.11178
O         17.32565       55.14703       59.93214
H         18.45951       58.92049       59.27338
H         19.55729       56.11159       58.82894
H         18.11322       56.82263       58.04921
N         17.71862       56.87249       61.30630
C         16.93893       56.38855       62.44079
C         15.89229       57.42229       62.83073
O         15.83531       58.47639       62.21214
C         17.87553       56.16425       63.64923
C         18.97280       55.12901       63.38019
C         19.79351       54.89297       64.62430
N         20.50565       55.89567       65.19183
O         19.81259       53.77996       65.12819
H         18.21503       57.74947       61.44430
H         16.42447       55.43373       62.19298
H         17.28136       55.80469       64.51555
H         18.34331       57.13322       63.92947
H         19.64021       55.47341       62.56144
H         18.49478       54.17417       63.06939
H         20.51077       56.84137       64.78335
H         21.05699       55.72550       66.04623
N         15.05383       57.20220       63.88385
C         14.08524       58.17935       64.36937
C         14.46629       58.57382       65.79436
O         14.62222       57.69628       66.63370
C         12.64247       57.60069       64.31398
C         11.61109       58.67161       64.71426
C         12.28944       57.08223       62.91030
H         15.11258       56.30364       64.38774
H         14.09200       59.08629       63.72621
H         12.56395       56.74452       65.02004
H         10.58336       58.25159       64.69332
H         11.80065       59.03805       65.74070
H         11.65176       59.53526       64.01406
H         12.97383       56.26158       62.61041
H         11.25604       56.67149       62.90641
H         12.35117       57.89742       62.15777
N         14.58273       59.88692       66.14452
C         14.87343       60.35956       67.50242
C         13.56701       60.73452       68.18362
O         12.54427       60.70806       67.51993
C         15.86528       61.54628       67.38794
C         16.17902       62.28494       68.66359
N         16.75205       61.65970       69.71508
O         15.92919       63.47922       68.73781
H         14.34408       60.59460       65.43353
H         15.31652       59.53969       68.10879
H         15.44342       62.28342       66.66716
H         16.81935       61.17033       66.96907
H         16.97812       60.65654       69.67312
H         16.96194       62.18547       70.57684
N         13.48892       61.01190       69.52290
C         12.20159       61.29063       70.16174
C         11.69626       62.69990       69.85692
O         10.56985       63.00887       70.21651
C         12.22695       60.93941       71.67116
C         12.82042       61.95767       72.61861
C         12.07510       63.09708       72.97506
C         14.06632       61.74328       73.23006
C         12.56173       64.00274       73.91632
C         14.55781       62.65891       74.16986
C         13.80518       63.78641       74.52025
O         14.27607       64.64490       75.44706
H         14.33101       60.92087       70.10769
H         11.47900       60.55524       69.73969
H         12.74280       59.95873       71.77542
H         11.18672       60.76294       72.02346
H         11.09617       63.27463       72.55753
H         14.65294       60.86615       72.98820
H         11.96084       64.86243       74.18667
H         15.51705       62.48376       74.63953
H         13.76883       65.41859       75.73354
N         12.46080       63.59273       69.15855
C         12.02244       64.93009       68.77654
C         11.55658       64.93706       67.32126
O         11.18563       65.98759       66.81704
C         13.17819       65.92828       69.00158
C         13.65854       65.93711       70.46292
C         14.79718       66.89766       70.65193
O         15.99500       66.44845       71.07392
O         14.64265       68.08873       70.43350
H         13.37608       63.29951       68.79496
H         11.15242       65.24958       69.39136
H         12.83820       66.95015       68.72304
H         14.03196       65.65340       68.34199
H         14.00531       64.92046       70.75027
H         12.82279       66.22576       71.13564
N         11.48137       63.77181       66.61673
C         10.96056       63.61810       65.27102
C          9.66774       62.82457       65.37309
O          8.63550       63.31553       64.93971
C         11.99291       62.87017       64.40240
C         13.32249       63.63182       64.27646
C         14.36006       62.83617       63.52987
O         15.48630       63.28293       63.40333
O         14.07521       61.62420       63.01764
H         11.76149       62.90198       67.07129
H         10.74065       64.60449       64.80438
H         11.57133       62.69806       63.38934
H         12.20180       61.88135       64.86577
H         13.72749       63.83796       65.29002
H         13.15349       64.59992       63.75541
N          9.64840       61.60660       65.99148
C          8.45403       60.82359       66.21993
H          7.54639       61.30310       65.80194
H          8.58014       59.81994       65.76395
H          8.31288       60.69696       67.31579
H         10.51931       61.21067       66.35848
Ca        17.42713       61.29423       62.05558
O         17.30308       60.20661       64.69538
H         18.05830       60.81698       64.88965
H         17.69927       59.49046       64.14111
O         16.40216       60.00655       58.46518
H         15.96240       60.49253       57.72458
H         16.19997       59.05357       58.29305
O         14.39864       60.08948       60.59842
H         14.22208       59.23735       60.12820
H         13.67106       60.68591       60.30459

Ca 1.0



