%chk=holoCaM.loop3.water2.frame133.chk
%nprocshared=20
%mem=10GB
%nosave
#b3lyp/svp scf=(tight,noincore,xqc) Test 
#IOP(5/87=12) Density=Current Pop=(MK,readradii) iop(6/33=2) iop(6/42=6)

holoCaM.loop3.water2.frame133 

   0  1 
C         20.54929      109.48660       96.62179
C         20.77827      109.04984       98.03500
O         21.90313      108.71884       98.38378
H         20.12623      110.51288       96.60831
H         21.50369      109.48466       96.05298
H         19.83873      108.78784       96.13383
N         19.74804      109.04859       98.92447
C         19.92637      108.62597      100.30378
C         20.03218      107.11145      100.34838
O         19.13322      106.44667       99.84964
C         18.77098      109.13221      101.18841
C         19.06737      108.93210      102.65245
O         20.10946      108.41782      103.01976
O         18.20493      109.37339      103.57558
H         18.82361      109.38844       98.61471
H         20.84297      109.11926      100.70006
H         17.81242      108.64025      100.91219
H         18.65832      110.22775      101.03150
N         21.10672      106.49667      100.91981
C         21.31623      105.05133      100.84706
C         20.67693      104.29300      102.00819
O         20.64195      103.07182      101.94863
C         22.81685      104.74453      100.67014
C         23.45467      105.51345       99.48438
C         22.83950      105.22819       98.10070
C         23.07353      103.78477       97.63472
N         22.50387      103.56742       96.30521
H         21.83750      107.08204      101.35240
H         20.79605      104.66507       99.94426
H         22.96558      103.65222      100.54140
H         23.35055      105.04835      101.59704
H         24.54146      105.28705       99.44933
H         23.36256      106.60398       99.67281
H         23.32192      105.91021       97.36706
H         21.75507      105.46634       98.09821
H         22.61072      103.06738       98.34494
H         24.16897      103.59191       97.59934
H         22.72346      102.59355       95.99448
H         21.46518      103.68640       96.33822
H         22.91438      104.24128       95.61848
N         20.07440      104.94461      103.04462
C         19.20012      104.30054      104.02535
C         17.75477      104.76733      103.82778
O         16.88223      104.27079      104.52689
C         19.71432      104.50539      105.46652
C         20.09482      105.92147      105.77352
O         21.25979      106.17214      106.04103
O         19.21385      106.93524      105.71544
H         20.14842      105.96716      103.09502
H         19.16851      103.20000      103.86254
H         20.63278      103.88772      105.58355
H         18.97090      104.13304      106.20404
N         17.41274      105.62927      102.82007
C         16.04657      105.90924      102.42038
C         15.27640      106.86453      103.30001
O         14.12258      107.10176      102.96787
H         18.13341      106.00256      102.19431
H         15.49541      104.94567      102.33371
H         16.06781      106.36331      101.40674
N         15.78750      107.44093      104.42831
C         14.92857      108.23132      105.31029
C         14.57328      109.61791      104.76279
O         13.73029      110.26957      105.36134
C         15.48665      108.26805      106.75245
C         16.58930      109.26424      107.00911
N         16.47189      110.15950      108.01999
O         17.60095      109.25063      106.33003
H         16.74488      107.20659      104.72589
H         13.98491      107.64889      105.40739
H         15.84707      107.24787      107.01068
H         14.64820      108.49834      107.44306
H         15.63685      110.16912      108.62470
H         17.22576      110.83183      108.22066
N         15.18723      110.14683      103.66002
C         14.87284      111.45653      103.10279
C         15.92806      112.50976      103.40107
O         15.77090      113.61956      102.90860
H         15.91803      109.61296      103.17926
H         13.91389      111.84521      103.50704
H         14.74036      111.34381      102.00427
N         16.97314      112.28146      104.25284
C         17.90625      113.31982      104.68606
C         19.34324      112.91407      104.42776
O         19.73089      111.81674      104.80940
C         17.75826      113.59889      106.19412
C         16.38142      114.08285      106.57692
C         15.29412      113.19421      106.60813
C         16.17581      115.42760      106.92833
C         14.02460      113.64082      106.98010
C         14.90290      115.87549      107.29213
C         13.82268      114.98160      107.32109
O         12.59111      115.39786      107.67709
H         17.07218      111.35493      104.68927
H         17.70136      114.28625      104.17201
H         18.50234      114.38909      106.44361
H         18.00909      112.70588      106.80273
H         15.42947      112.15180      106.35939
H         16.99757      116.13304      106.91236
H         13.19852      112.94156      107.00618
H         14.75883      116.91626      107.55307
H         12.41019      116.31641      107.92215
N         20.21282      113.79224      103.85205
C         21.62338      113.50388      103.61791
C         22.47699      114.47737      104.42605
O         22.31538      115.68112      104.26837
C         21.94694      113.62137      102.09734
C         20.99572      112.72324      101.26355
C         23.42122      113.25377      101.83300
C         21.22101      112.82690       99.75337
H         19.86599      114.72542      103.57707
H         21.86746      112.46218      103.92809
H         21.78752      114.67770      101.78385
H         19.94752      113.03999      101.45167
H         21.09838      111.66072      101.57389
H         23.69848      113.41439      100.77349
H         24.09849      113.89958      102.41994
H         23.60927      112.19222      102.09558
H         22.21432      112.42846       99.46405
H         20.45576      112.22234       99.22381
H         21.13480      113.88401       99.42247
N         23.46258      114.01930      105.25091
C         24.42227      114.88878      105.93245
C         25.74357      114.86325      105.18432
O         25.82209      114.20316      104.15854
C         24.60407      114.42842      107.39064
O         25.16115      113.13836      107.44023
H         23.61502      113.00200      105.30855
H         24.06742      115.94216      105.93641
H         23.62602      114.46970      107.92445
H         25.28520      115.11649      107.93404
H         24.45400      112.51884      107.75440
N         26.82568      115.58158      105.60167
C         28.10230      115.50017      104.89682
C         28.75057      114.12828      105.06272
O         29.57314      113.77079      104.23149
C         29.06522      116.59784      105.35041
H         26.73420      116.20394      106.41967
H         27.90278      115.67724      103.81491
H         29.30477      116.49096      106.42894
H         30.00615      116.55036      104.76049
H         28.60124      117.59322      105.17894
N         28.45595      113.31648      106.12550
C         29.01005      111.96862      106.27084
C         28.34434      110.96835      105.32326
O         28.77589      109.82486      105.27098
C         28.83339      111.48544      107.71499
H         27.83034      113.67156      106.86362
H         30.10362      112.01141      106.07085
H         27.75578      111.42577      107.98028
H         29.29560      110.48437      107.85127
H         29.33417      112.19398      108.40931
N         27.26855      111.32842      104.56975
C         26.53627      110.46566      103.65649
C         26.60583      110.99276      102.22655
O         26.01631      110.37067      101.35279
C         25.05663      110.43829      104.09143
C         24.85690      109.86070      105.49570
C         23.40833      109.90794      105.88425
O         22.49641      109.33043      105.08641
O         23.05833      110.43935      106.92498
H         26.90911      112.27562      104.66092
H         26.94894      109.43281      103.66198
H         24.46612      109.82788      103.37191
H         24.66501      111.47449      104.06493
H         25.45726      110.41741      106.24688
H         25.18725      108.80003      105.49042
N         27.28624      112.13043      101.90040
C         27.30787      112.65110      100.55198
H         27.91598      113.58036      100.51668
H         27.75268      111.90477       99.86128
H         26.27403      112.89409      100.22621
H         27.80003      112.66250      102.61374
Ca        20.39527      108.84716      105.70801
O         20.05869      111.55232      108.04610
H         20.33220      112.45934      107.75843
H         20.51101      110.94690      107.40856
O         19.38795      108.14897      108.48680
H         19.31858      108.41325      109.43763
H         19.49911      107.16545      108.50704

Ca 1.0



