%chk=holoCaM.loop2.water0.frame11.chk
%nprocshared=20
%mem=10GB
%nosave
#b3lyp/svp scf=(tight,noincore,xqc) Test 
#IOP(5/87=12) Density=Current Pop=(MK,readradii) iop(6/33=2) iop(6/42=6)

holoCaM.loop2.water0.frame11 

   -2  1 
C         96.12599       22.78362       34.60043
C         97.12884       22.20906       33.64458
O         96.81203       21.28502       32.90942
H         95.15059       22.26124       34.51947
H         96.50584       22.68395       35.63957
H         95.97761       23.86168       34.37580
N         98.37958       22.73518       33.60393
C         99.42650       22.27136       32.70364
C         99.81075       20.83254       33.01981
O        100.15272       20.56220       34.16331
C        100.65595       23.18366       32.87109
C        101.75194       22.91954       31.89078
O        101.61650       22.13253       30.97049
O        102.90510       23.58262       32.03216
H         98.58476       23.52508       34.23749
H         99.06674       22.36861       31.65931
H        101.06083       23.05982       33.89899
H        100.35963       24.24700       32.73938
N         99.81344       19.86696       32.05095
C        100.18139       18.47784       32.31896
C        101.47399       18.04906       31.62936
O        101.92525       16.94886       31.91743
C         99.02500       17.56032       31.91386
H         99.54989       20.12553       31.08917
H        100.36047       18.33849       33.40696
H         98.82856       17.64521       30.82290
H         99.26157       16.50167       32.15380
H         98.10399       17.84648       32.46497
N        102.13483       18.83843       30.72998
C        103.41196       18.46790       30.11904
C        104.51228       19.50469       30.40569
O        105.60913       19.34879       29.88762
C        103.20060       18.15709       28.62180
C        102.71092       19.31316       27.81318
O        101.62750       19.26599       27.25267
O        103.49524       20.38529       27.65505
H        101.72104       19.73356       30.44279
H        103.78674       17.51159       30.54467
H        102.46051       17.32937       28.54814
H        104.15128       17.79605       28.17312
N        104.32501       20.52708       31.29715
C        105.38026       21.43169       31.74682
C        105.82412       22.51231       30.77039
O        106.68618       23.29073       31.15375
H        103.42944       20.59598       31.79678
H        106.25758       20.83136       32.07134
H        105.00697       21.97105       32.64473
N        105.30449       22.64912       29.51818
C        105.74385       23.68897       28.57867
C        105.32558       25.12989       28.94609
O        105.65869       26.02567       28.18129
C        105.30831       23.35204       27.12414
C        103.82918       22.99459       26.88928
N        103.42484       23.33710       25.53064
O        102.98039       23.58484       27.81526
H        104.61253       21.95932       29.20549
H        106.85643       23.68852       28.54395
H        105.88483       22.47293       26.76515
H        105.60574       24.20297       26.47210
H        104.01147       22.79698       24.85537
H        102.43091       23.05089       25.39351
N        104.63039       25.45500       30.07641
C        104.23046       26.82378       30.41074
C        103.15519       27.40630       29.49567
O        102.83190       28.57509       29.64759
H        104.41389       24.72363       30.75169
H        105.13346       27.47269       30.38626
H        103.82705       26.84854       31.44635
N        102.56412       26.65243       28.52893
C        101.59682       27.11798       27.54552
C        100.33068       26.27328       27.61260
O        100.41217       25.06087       27.47117
C        102.23107       26.97854       26.14290
C        101.29426       27.46197       25.03089
O        103.41968       27.72556       26.10091
H        102.84375       25.68399       28.45384
H        101.35358       28.19077       27.71118
H        102.45841       25.89847       25.97359
H        104.02399       27.27227       25.45620
H        101.78946       27.33547       24.04563
H        100.35538       26.86978       25.01725
H        101.04483       28.53407       25.17632
N         99.11327       26.85959       27.77757
C         97.86108       26.10431       27.76346
C         97.64202       25.49314       26.37605
O         97.61248       26.22749       25.40022
C         96.64981       27.00757       28.17368
C         96.85721       27.56604       29.61184
C         95.32893       26.20962       28.10088
C         95.74805       28.51015       30.08256
H         99.08147       27.88279       27.89377
H         97.91507       25.30292       28.52818
H         96.57893       27.85760       27.45929
H         97.79982       28.14702       29.65786
H         96.94180       26.72628       30.33630
H         95.34761       25.35534       28.80979
H         94.45213       26.84571       28.32969
H         95.15402       25.82973       27.07705
H         95.64140       29.36175       29.37812
H         94.77731       27.98445       30.18157
H         96.00744       28.90815       31.08615
N         97.39583       24.15607       26.24492
C         97.01142       23.50523       24.99029
C         95.51944       23.21325       25.03641
O         94.88363       23.57631       26.00417
C         97.81192       22.20248       24.79221
C         99.28739       22.44514       24.69491
O         99.74029       23.16219       23.81713
O        100.12242       21.83403       25.55283
H         97.36046       23.58284       27.09327
H         97.18178       24.17837       24.12293
H         97.49743       21.70380       23.85157
H         97.60619       21.50481       25.63494
N         94.87531       22.60442       23.99721
C         93.42692       22.40581       24.00519
C         92.94586       21.49956       25.14247
O         92.05974       21.94687       25.86470
C         92.91492       21.92140       22.63034
C         91.40168       21.98291       22.55572
C         90.73228       23.21444       22.70990
C         90.64423       20.82182       22.32818
C         89.33848       23.27797       22.65193
C         89.24706       20.89199       22.26602
C         88.59557       22.11772       22.43081
H         95.41245       22.33379       23.16315
H         92.98034       23.41186       24.15365
H         93.28912       20.89983       22.42067
H         93.31175       22.59053       21.83622
H         91.28412       24.13055       22.87640
H         91.13163       19.86387       22.20086
H         88.83554       24.22868       22.77805
H         88.66726       19.99543       22.09121
H         87.51536       22.17043       22.38537
N         93.44303       20.24663       25.41292
C         92.94107       19.39160       26.48587
C         93.31430       19.88071       27.88680
O         92.92046       19.24045       28.84875
C         93.55927       18.02689       26.17247
C         94.90019       18.42440       25.59840
C         94.51773       19.59097       24.68707
H         91.83284       19.29394       26.43591
H         93.58139       17.30711       27.01894
H         92.98281       17.56402       25.33869
H         95.51521       18.81812       26.44087
H         95.46885       17.61409       25.09557
H         95.41738       20.22164       24.55362
H         94.12803       19.23621       23.71087
N         94.03057       21.02305       28.07491
C         94.31084       21.61310       29.37567
C         93.27479       22.69441       29.64869
O         92.73101       22.73160       30.74403
C         95.73340       22.20967       29.38985
C         96.83697       21.17080       29.08684
C         98.21178       21.79414       29.01811
O         98.37375       22.97900       29.25913
O         99.27935       21.06007       28.64863
H         94.33915       21.55534       27.25884
H         94.25460       20.85502       30.18845
H         95.92657       22.66867       30.38489
H         95.77916       23.01026       28.62442
H         96.63434       20.71333       28.09543
H         96.83362       20.36950       29.85683
N         92.90436       23.57293       28.67404
C         91.89257       24.58700       28.86249
H         90.93529       24.11919       29.17613
H         92.22878       25.31936       29.62387
H         91.71851       25.12374       27.90333
H         93.32098       23.50444       27.74186
Ca       101.16162       22.23202       28.14569

Ca 1.0



