%chk=holoCaM.loop2.water3.frame473.chk
%nprocshared=20
%mem=10GB
%nosave
#b3lyp/svp scf=(tight,noincore,xqc) Test 
#IOP(5/87=12) Density=Current Pop=(MK,readradii) iop(6/33=2) iop(6/42=6)

holoCaM.loop2.water3.frame473 

   -2  1 
C          2.18420       64.38457       71.27502
C          1.43486       65.52378       71.89596
O          2.01008       66.26148       72.68427
H          3.23341       64.35876       71.63916
H          1.68891       63.42627       71.53620
H          2.19234       64.50393       70.17110
N          0.13078       65.73739       71.56864
C         -0.64009       66.84442       72.11510
C         -0.79969       66.68247       73.62519
O         -1.19579       65.61025       74.06165
C         -2.02973       66.93988       71.43932
C         -2.69766       68.25446       71.75729
O         -3.82492       68.48630       71.36726
O         -2.01226       69.19676       72.42569
H         -0.31328       65.10618       70.88297
H         -0.09288       67.77883       71.86530
H         -2.66368       66.08665       71.76699
H         -1.92245       66.89456       70.33371
N         -0.54540       67.71912       74.47660
C         -0.61636       67.61054       75.93040
C         -1.87308       68.23894       76.53057
O         -2.00175       68.19142       77.74624
C          0.64956       68.23154       76.52948
H         -0.29120       68.63322       74.08108
H         -0.64232       66.54045       76.23229
H          1.55003       67.72556       76.12057
H          0.70385       69.31360       76.27967
H          0.65690       68.11910       77.63436
N         -2.87393       68.76649       75.76388
C         -4.14751       69.23642       76.31708
C         -5.30233       68.34535       75.86968
O         -6.42213       68.59155       76.29788
C         -4.44354       70.67073       75.84042
C         -3.40064       71.67447       76.23915
O         -2.64209       72.25808       75.29110
O         -3.24789       71.97502       77.41185
H         -2.76728       68.78059       74.74247
H         -4.12888       69.21455       77.42773
H         -5.42376       71.02295       76.22883
H         -4.52935       70.64595       74.73814
N         -5.12617       67.31800       74.98773
C         -6.21290       66.50509       74.47780
C         -7.25705       67.34860       73.78461
O         -8.43413       67.14436       74.04577
H         -4.19203       67.10066       74.61538
H         -6.67752       65.91368       75.29794
H         -5.79356       65.78716       73.73921
N         -6.89733       68.32012       72.89272
C         -7.87121       69.13531       72.16686
C         -7.81269       68.89695       70.66424
O         -8.70755       69.36753       69.97565
C         -7.72329       70.63849       72.49225
C         -6.45715       71.25675       71.94301
N         -6.51777       72.23359       71.00776
O         -5.36919       70.87985       72.34483
H         -5.89485       68.48086       72.73484
H         -8.89349       68.83912       72.48660
H         -7.76695       70.79598       73.59220
H         -8.59682       71.16643       72.05111
H         -7.42167       72.56741       70.64296
H         -5.65362       72.65721       70.64179
N         -6.80380       68.18569       70.07980
C         -6.78093       67.83299       68.67380
C         -5.67939       68.49959       67.87580
O         -5.54048       68.12033       66.72179
H         -6.02743       67.82612       70.64444
H         -7.74038       68.08195       68.17290
H         -6.65855       66.72981       68.61670
N         -4.91169       69.52978       68.35512
C         -3.93366       70.22873       67.50969
C         -2.54348       70.23680       68.12945
O         -2.38076       69.79107       69.25410
C         -4.41424       71.66947       67.21730
C         -5.80089       71.67816       66.56119
O         -4.45333       72.41148       68.40661
H         -5.07119       69.88156       69.31104
H         -3.83736       69.70932       66.53150
H         -3.69128       72.13512       66.50783
H         -4.40822       73.36981       68.14995
H         -5.78778       71.08791       65.62047
H         -6.56443       71.25045       67.24601
H         -6.09835       72.72033       66.32086
N         -1.47713       70.70489       67.41331
C         -0.10226       70.70405       67.90944
C          0.51576       72.09636       67.82910
O          0.58698       72.67158       66.75270
C          0.76650       69.63710       67.16683
C          0.76957       69.80448       65.62011
C          0.29534       68.22825       67.58013
C          1.69061       68.82387       64.89161
H         -1.64069       71.03402       66.45050
H         -0.08054       70.40624       68.97703
H          1.81138       69.74546       67.53812
H          1.12777       70.81684       65.35312
H         -0.25698       69.67688       65.21630
H          0.32077       68.12475       68.68687
H         -0.73938       68.03514       67.22728
H          0.96791       67.44351       67.18128
H          1.36025       67.77463       65.02654
H          1.66774       69.03942       63.80243
H          2.73372       68.93684       65.25050
N          1.03826       72.67616       68.94992
C          1.84460       73.89442       68.92649
C          3.29144       73.51832       68.58777
O          3.55688       72.33763       68.40490
C          1.66937       74.61403       70.28541
C          2.30684       75.97227       70.35873
O          3.21736       76.24227       71.31296
O          1.97883       76.84895       69.57511
H          1.00854       72.14767       69.83260
H          1.46246       74.57241       68.13092
H          2.06052       73.96855       71.10219
H          0.58076       74.76354       70.45737
N          4.27424       74.45474       68.42949
C          5.62188       74.10409       67.98267
C          6.31897       73.11701       68.91692
O          6.85043       72.14772       68.39749
C          6.50026       75.35059       67.72234
C          7.77338       74.97858       66.99123
C          7.70755       74.44879       65.68795
C          9.03147       75.15616       67.59228
C          8.87414       74.09996       65.00392
C         10.19784       74.80247       66.90326
C         10.11879       74.27513       65.61107
H          4.04909       75.44975       68.56025
H          5.50026       73.60753       66.99455
H          6.73564       75.86688       68.67057
H          5.94823       76.07386       67.08436
H          6.75304       74.30911       65.19647
H          9.11126       75.56031       68.59343
H          8.81146       73.69429       64.00208
H         11.16467       74.93637       67.37052
H         11.02114       74.00307       65.07872
N          6.37339       73.25674       70.28134
C          6.96939       72.26589       71.17176
C          6.37101       70.88220       70.97638
O          7.11135       69.92203       70.81625
C          6.63057       72.78194       72.58106
C          6.58009       74.27389       72.36210
C          5.82356       74.35905       71.04079
H          8.07196       72.26215       71.01738
H          5.59487       72.48988       72.86810
H          7.31896       72.42922       73.37882
H          6.12910       74.85831       73.19196
H          7.62302       74.62901       72.19439
H          4.73666       74.17797       71.18179
H          6.00368       75.35728       70.60735
N          5.01464       70.72434       70.97298
C          4.33949       69.43276       70.84388
C          4.62438       68.75687       69.50882
O          4.37162       67.56587       69.39047
C          2.81171       69.61398       70.98653
C          2.40918       70.18378       72.36353
C          0.95170       70.53304       72.45312
O          0.20495       70.38315       71.50072
O          0.46945       71.05587       73.59577
H          4.44182       71.57413       71.07850
H          4.70995       68.77117       71.65864
H          2.29142       68.64065       70.84350
H          2.47922       70.30509       70.18135
H          2.95647       71.12066       72.58312
H          2.65875       69.44087       73.15074
N          5.11492       69.45404       68.44913
C          5.42186       68.84238       67.17747
H          6.22351       68.08590       67.30820
H          4.51585       68.36289       66.75584
H          5.78092       69.61886       66.46683
H          5.25896       70.46144       68.53315
Ca        -2.57373       71.17653       73.31395
O         -4.12012       73.95180       73.10846
H         -3.90903       74.81717       73.54067
H         -5.10843       73.89865       73.12636
O         -2.38834       73.18099       70.51862
H         -1.99792       73.11496       69.61128
H         -2.51765       74.15228       70.66157
O         -0.72924       73.94216       73.12959
H         -0.93351       74.77854       72.64104
H         -0.99278       74.13242       74.06466

Ca 1.0



